
 OpenBabel05112615523D

 52 54  0  0  0  0  0  0  0  0999 V2000
   -2.9131    2.8623    2.8123 C   0  0  0  0  0  0  0  0  0  0  0  0
   -1.8893    3.2785    2.3357 C   0  0  0  0  0  0  0  0  0  0  0  0
   -0.6747    3.7851    1.7855 C   0  0  0  0  0  0  0  0  0  0  0  0
   -0.3874    5.1433    1.8862 C   0  0  0  0  0  0  0  0  0  0  0  0
    0.7853    5.6429    1.3281 C   0  0  0  0  0  0  0  0  0  0  0  0
    1.6767    4.7779    0.6909 C   0  0  0  0  0  0  0  0  0  0  0  0
    1.4202    3.4039    0.6252 C   0  0  0  0  0  0  0  0  0  0  0  0
    2.2704    2.5177   -0.0963 N   0  0  0  0  0  0  0  0  0  0  0  0
    3.6936    2.5868   -0.0801 C   0  0  0  0  0  0  0  0  0  0  0  0
    4.2842    3.2088    0.9593 N   0  0  0  0  0  0  0  0  0  0  0  0
    5.6163    3.1819    1.0047 C   0  0  0  0  0  0  0  0  0  0  0  0
    6.4213    2.5873    0.1192 N   0  0  0  0  0  0  0  0  0  0  0  0
    5.8347    1.9590   -0.9048 C   0  0  0  0  0  0  0  0  0  0  0  0
    6.6344    1.3346   -1.8599 C   0  0  0  0  0  0  0  0  0  0  0  0
    6.1287    0.6802   -3.0089 C   0  0  0  0  0  0  0  0  0  0  0  0
    7.1599    0.2453   -3.8078 O   0  0  0  0  0  0  0  0  0  0  0  0
    6.9120    0.1246   -5.1959 C   0  0  0  0  0  0  0  0  0  0  0  0
    8.1483    0.2520   -6.0796 C   0  0  0  0  0  0  0  0  0  0  0  0
    7.6522    0.0234   -7.4031 O   0  0  0  0  0  0  0  0  0  0  0  0
    8.6323    0.0839   -8.4176 C   0  0  0  0  0  0  0  0  0  0  0  0
    4.7418    0.6113   -3.1633 C   0  0  0  0  0  0  0  0  0  0  0  0
    3.9656    0.0966   -4.1600 O   0  0  0  0  0  0  0  0  0  0  0  0
    4.2690   -1.1633   -4.7454 C   0  0  0  0  0  0  0  0  0  0  0  0
    3.1325   -2.1771   -4.6239 C   0  0  0  0  0  0  0  0  0  0  0  0
    1.9211   -1.6949   -5.2044 O   0  0  0  0  0  0  0  0  0  0  0  0
    0.9171   -2.7050   -5.1979 C   0  0  0  0  0  0  0  0  0  0  0  0
    3.9293    1.2406   -2.2004 C   0  0  0  0  0  0  0  0  0  0  0  0
    4.4484    1.9178   -1.0692 C   0  0  0  0  0  0  0  0  0  0  0  0
    0.2112    2.9191    1.1354 C   0  0  0  0  0  0  0  0  0  0  0  0
   -3.8180    2.4970    3.2367 H   0  0  0  0  0  0  0  0  0  0  0  0
   -1.0737    5.8154    2.3916 H   0  0  0  0  0  0  0  0  0  0  0  0
    1.0101    6.7048    1.3943 H   0  0  0  0  0  0  0  0  0  0  0  0
    2.5808    5.1891    0.2503 H   0  0  0  0  0  0  0  0  0  0  0  0
    1.9374    2.5099   -1.0556 H   0  0  0  0  0  0  0  0  0  0  0  0
    6.0857    3.6909    1.8397 H   0  0  0  0  0  0  0  0  0  0  0  0
    7.7146    1.3869   -1.7226 H   0  0  0  0  0  0  0  0  0  0  0  0
    6.1596    0.8422   -5.5399 H   0  0  0  0  0  0  0  0  0  0  0  0
    6.5746   -0.8919   -5.3898 H   0  0  0  0  0  0  0  0  0  0  0  0
    8.8974   -0.5049   -5.8142 H   0  0  0  0  0  0  0  0  0  0  0  0
    8.6061    1.2425   -5.9923 H   0  0  0  0  0  0  0  0  0  0  0  0
    8.1227   -0.0902   -9.3704 H   0  0  0  0  0  0  0  0  0  0  0  0
    9.3833   -0.6977   -8.2790 H   0  0  0  0  0  0  0  0  0  0  0  0
    9.0957    1.0726   -8.4467 H   0  0  0  0  0  0  0  0  0  0  0  0
    5.1442   -1.6283   -4.2881 H   0  0  0  0  0  0  0  0  0  0  0  0
    4.4338   -0.9674   -5.8115 H   0  0  0  0  0  0  0  0  0  0  0  0
    2.9585   -2.4141   -3.5700 H   0  0  0  0  0  0  0  0  0  0  0  0
    3.4388   -3.0884   -5.1533 H   0  0  0  0  0  0  0  0  0  0  0  0
   -0.0129   -2.2763   -5.5794 H   0  0  0  0  0  0  0  0  0  0  0  0
    0.7428   -3.0738   -4.1818 H   0  0  0  0  0  0  0  0  0  0  0  0
    1.2121   -3.5338   -5.8495 H   0  0  0  0  0  0  0  0  0  0  0  0
    2.8531    1.1992   -2.3603 H   0  0  0  0  0  0  0  0  0  0  0  0
   -0.0238    1.8586    1.0525 H   0  0  0  0  0  0  0  0  0  0  0  0
  1  2  3  0  0  0  0
  1 30  1  0  0  0  0
  2  3  1  0  0  0  0
  3  4  1  0  0  0  0
  3 29  2  0  0  0  0
  4  5  2  0  0  0  0
  4 31  1  0  0  0  0
  5  6  1  0  0  0  0
  5 32  1  0  0  0  0
  6  7  2  0  0  0  0
  6 33  1  0  0  0  0
  7  8  1  0  0  0  0
  7 29  1  0  0  0  0
  8  9  1  0  0  0  0
  8 34  1  0  0  0  0
  9 10  1  0  0  0  0
  9 28  2  0  0  0  0
 10 11  2  0  0  0  0
 11 12  1  0  0  0  0
 11 35  1  0  0  0  0
 12 13  2  0  0  0  0
 13 14  1  0  0  0  0
 13 28  1  0  0  0  0
 14 15  2  0  0  0  0
 14 36  1  0  0  0  0
 15 16  1  0  0  0  0
 15 21  1  0  0  0  0
 16 17  1  0  0  0  0
 17 18  1  0  0  0  0
 17 37  1  0  0  0  0
 17 38  1  0  0  0  0
 18 19  1  0  0  0  0
 18 39  1  0  0  0  0
 18 40  1  0  0  0  0
 19 20  1  0  0  0  0
 20 41  1  0  0  0  0
 20 42  1  0  0  0  0
 20 43  1  0  0  0  0
 21 22  1  0  0  0  0
 21 27  2  0  0  0  0
 22 23  1  0  0  0  0
 23 24  1  0  0  0  0
 23 44  1  0  0  0  0
 23 45  1  0  0  0  0
 24 25  1  0  0  0  0
 24 46  1  0  0  0  0
 24 47  1  0  0  0  0
 25 26  1  0  0  0  0
 26 48  1  0  0  0  0
 26 49  1  0  0  0  0
 26 50  1  0  0  0  0
 27 28  1  0  0  0  0
 27 51  1  0  0  0  0
 29 52  1  0  0  0  0
M  END
$$$$
