@<TRIPOS>MOLECULE
gefitinib_minimized.pdb
 55 58 0 0 0
SMALL
GASTEIGER

@<TRIPOS>ATOM
      1 CL         -5.7630    0.4150    2.1810 Cl      1  UNL1       -0.0805
      2  F         -6.5280   -0.4440   -0.5650 F       1  UNL1       -0.2040
      3  O         -1.6560    3.9170   -1.2810 O.3     1  UNL1       -0.3772
      4  O          3.5260    0.9390    0.8720 O.3     1  UNL1       -0.4882
      5  O          5.2350   -1.0050   -0.2540 O.3     1  UNL1       -0.4914
      6  N          0.8120    3.1890    0.0690 N.3     1  UNL1       -0.2979
      7  N         -1.1400   -1.1250    0.6050 N.pl3   1  UNL1       -0.2988
      8  N          1.5710   -3.9310   -0.8200 N.ar    1  UNL1       -0.2352
      9  N         -0.6680   -3.2670   -0.3260 N.ar    1  UNL1       -0.2200
     10  C          1.8880    3.4400    1.0410 C.3     1  UNL1        0.0021
     11  C         -0.5070    3.1500    0.7420 C.3     1  UNL1        0.0224
     12  C          0.7620    4.2130   -0.9970 C.3     1  UNL1        0.0224
     13  C          3.3030    3.2940    0.4530 C.3     1  UNL1       -0.0058
     14  C         -1.6370    2.9010   -0.2710 C.3     1  UNL1        0.0604
     15  C         -0.3980    3.9440   -1.9680 C.3     1  UNL1        0.0604
     16  C          3.5570    1.9220   -0.1710 C.3     1  UNL1        0.0909
     17  C          3.0490   -0.2530    0.4050 C.ar    1  UNL1        0.1627
     18  C          1.1540   -1.7460    0.0820 C.ar    1  UNL1        0.0441
     19  C          1.6850   -0.5030    0.5010 C.ar    1  UNL1       -0.0038
     20  C          3.8970   -1.2390   -0.0830 C.ar    1  UNL1        0.1636
     21  C          2.0120   -2.7360   -0.4160 C.ar    1  UNL1        0.0797
     22  C          3.3730   -2.4620   -0.5020 C.ar    1  UNL1        0.0098
     23  C         -0.2150   -2.0740    0.0980 C.ar    1  UNL1        0.1340
     24  C         -2.5170   -1.0290    0.3240 C.ar    1  UNL1        0.0339
     25  C          0.2500   -4.1400   -0.7500 C.ar    1  UNL1        0.1187
     26  C          5.9410   -1.2650    0.9580 C.3     1  UNL1        0.0790
     27  C         -3.3780   -0.4580    1.2730 C.ar    1  UNL1       -0.0194
     28  C         -3.0410   -1.3670   -0.9330 C.ar    1  UNL1       -0.0377
     29  C         -4.7330   -0.2710    0.9840 C.ar    1  UNL1        0.0778
     30  C         -4.3940   -1.1720   -1.2280 C.ar    1  UNL1       -0.0232
     31  C         -5.2330   -0.6280   -0.2640 C.ar    1  UNL1        0.1417
     32  H          1.7850    4.4400    1.4810 H       1  UNL1        0.0428
     33  H          1.7960    2.7270    1.8690 H       1  UNL1        0.0428
     34  H         -0.5240    2.3480    1.4890 H       1  UNL1        0.0449
     35  H         -0.6910    4.1010    1.2590 H       1  UNL1        0.0449
     36  H          0.6360    5.2090   -0.5520 H       1  UNL1        0.0449
     37  H          1.6900    4.2130   -1.5760 H       1  UNL1        0.0449
     38  H          3.4920    4.0770   -0.2890 H       1  UNL1        0.0310
     39  H          4.0180    3.4520    1.2690 H       1  UNL1        0.0310
     40  H         -1.5350    1.9190   -0.7470 H       1  UNL1        0.0572
     41  H         -2.6050    2.9250    0.2400 H       1  UNL1        0.0572
     42  H         -0.4450    4.7420   -2.7170 H       1  UNL1        0.0572
     43  H         -0.2560    2.9960   -2.5020 H       1  UNL1        0.0572
     44  H          2.8310    1.7200   -0.9680 H       1  UNL1        0.0697
     45  H          4.5580    1.9090   -0.6170 H       1  UNL1        0.0697
     46  H          1.0360    0.2840    0.8740 H       1  UNL1        0.0663
     47  H          4.0410   -3.2190   -0.9070 H       1  UNL1        0.0677
     48  H         -0.9120   -0.9300    1.5750 H       1  UNL1        0.1536
     49  H         -0.1090   -5.1130   -1.0690 H       1  UNL1        0.1048
     50  H         -2.9990   -0.1620    2.2470 H       1  UNL1        0.0652
     51  H         -2.3920   -1.7730   -1.7060 H       1  UNL1        0.0637
     52  H          6.9930   -1.0110    0.7920 H       1  UNL1        0.0660
     53  H          5.5720   -0.6490    1.7850 H       1  UNL1        0.0660
     54  H          5.8850   -2.3270    1.2190 H       1  UNL1        0.0660
     55  H         -4.7900   -1.4340   -2.2040 H       1  UNL1        0.0647
@<TRIPOS>BOND
     1     1    29    1
     2     2    31    1
     3     3    14    1
     4     3    15    1
     5     4    16    1
     6     4    17    1
     7     5    20    1
     8     5    26    1
     9     6    10    1
    10     6    11    1
    11     6    12    1
    12     7    23    1
    13     7    24    1
    14     7    48    1
    15     8    21   ar
    16     8    25   ar
    17     9    23   ar
    18     9    25   ar
    19    10    13    1
    20    10    32    1
    21    10    33    1
    22    11    14    1
    23    11    34    1
    24    11    35    1
    25    12    15    1
    26    12    36    1
    27    12    37    1
    28    13    16    1
    29    13    38    1
    30    13    39    1
    31    14    40    1
    32    14    41    1
    33    15    42    1
    34    15    43    1
    35    16    44    1
    36    16    45    1
    37    17    19   ar
    38    17    20   ar
    39    18    19   ar
    40    18    21   ar
    41    18    23   ar
    42    19    46    1
    43    20    22   ar
    44    21    22   ar
    45    22    47    1
    46    24    27   ar
    47    24    28   ar
    48    25    49    1
    49    26    52    1
    50    26    53    1
    51    26    54    1
    52    27    29   ar
    53    27    50    1
    54    28    30   ar
    55    28    51    1
    56    29    31   ar
    57    30    31   ar
    58    30    55    1
