@<TRIPOS>MOLECULE
gefitinib_minimized.pdb
   55    58     1     0     0
SMALL
bcc


@<TRIPOS>ATOM
      1 Cl          -5.7630     0.4150     2.1810 cl         1 UNL      -0.067400
      2 F           -6.5280    -0.4440    -0.5650 f          1 UNL      -0.124900
      3 O           -1.6560     3.9170    -1.2810 os         1 UNL      -0.408600
      4 O1           3.5260     0.9390     0.8720 os         1 UNL      -0.345900
      5 O2           5.2350    -1.0050    -0.2540 os         1 UNL      -0.334900
      6 N            0.8120     3.1890     0.0690 n3         1 UNL      -0.732600
      7 N1          -1.1400    -1.1250     0.6050 nu         1 UNL      -0.726300
      8 N2           1.5710    -3.9310    -0.8200 nb         1 UNL      -0.707000
      9 N3          -0.6680    -3.2670    -0.3260 nb         1 UNL      -0.768000
     10 C            1.8880     3.4400     1.0410 c3         1 UNL       0.163800
     11 C1          -0.5070     3.1500     0.7420 c6         1 UNL       0.125800
     12 C2           0.7620     4.2130    -0.9970 c6         1 UNL       0.125800
     13 C3           3.3030     3.2940     0.4530 c3         1 UNL      -0.087400
     14 C4          -1.6370     2.9010    -0.2710 c6         1 UNL       0.125400
     15 C5          -0.3980     3.9440    -1.9680 c6         1 UNL       0.125400
     16 C6           3.5570     1.9220    -0.1710 c3         1 UNL       0.134400
     17 C7           3.0490    -0.2530     0.4050 ca         1 UNL       0.079100
     18 C8           1.1540    -1.7460     0.0820 ca         1 UNL      -0.280600
     19 C9           1.6850    -0.5030     0.5010 ca         1 UNL      -0.133000
     20 C10          3.8970    -1.2390    -0.0830 ca         1 UNL       0.121100
     21 C11          2.0120    -2.7360    -0.4160 ca         1 UNL       0.435600
     22 C12          3.3730    -2.4620    -0.5020 ca         1 UNL      -0.186300
     23 C13         -0.2150    -2.0740     0.0980 ca         1 UNL       0.696200
     24 C14         -2.5170    -1.0290     0.3240 ca         1 UNL       0.134600
     25 C15          0.2500    -4.1400    -0.7500 ca         1 UNL       0.667900
     26 C16          5.9410    -1.2650     0.9580 c3         1 UNL       0.115700
     27 C17         -3.3780    -0.4580     1.2730 ca         1 UNL      -0.150000
     28 C18         -3.0410    -1.3670    -0.9330 ca         1 UNL      -0.086000
     29 C19         -4.7330    -0.2710     0.9840 ca         1 UNL      -0.003600
     30 C20         -4.3940    -1.1720    -1.2280 ca         1 UNL      -0.145000
     31 C21         -5.2330    -0.6280    -0.2640 ca         1 UNL       0.121900
     32 H            1.7850     4.4400     1.4810 h1         1 UNL       0.042700
     33 H1           1.7960     2.7270     1.8690 h1         1 UNL       0.042700
     34 H2          -0.5240     2.3480     1.4890 h1         1 UNL       0.042700
     35 H3          -0.6910     4.1010     1.2590 h1         1 UNL       0.042700
     36 H4           0.6360     5.2090    -0.5520 h1         1 UNL       0.042700
     37 H5           1.6900     4.2130    -1.5760 h1         1 UNL       0.042700
     38 H6           3.4920     4.0770    -0.2890 hc         1 UNL       0.057200
     39 H7           4.0180     3.4520     1.2690 hc         1 UNL       0.057200
     40 H8          -1.5350     1.9190    -0.7470 h1         1 UNL       0.053200
     41 H9          -2.6050     2.9250     0.2400 h1         1 UNL       0.053200
     42 H10         -0.4450     4.7420    -2.7170 h1         1 UNL       0.053200
     43 H11         -0.2560     2.9960    -2.5020 h1         1 UNL       0.053200
     44 H12          2.8310     1.7200    -0.9680 h1         1 UNL       0.051700
     45 H13          4.5580     1.9090    -0.6170 h1         1 UNL       0.051700
     46 H14          1.0360     0.2840     0.8740 ha         1 UNL       0.156000
     47 H15          4.0410    -3.2190    -0.9070 ha         1 UNL       0.172000
     48 H16         -0.9120    -0.9300     1.5750 hn         1 UNL       0.436800
     49 H17         -0.1090    -5.1130    -1.0690 h5         1 UNL       0.055100
     50 H18         -2.9990    -0.1620     2.2470 ha         1 UNL       0.147000
     51 H19         -2.3920    -1.7730    -1.7060 ha         1 UNL       0.164000
     52 H20          6.9930    -1.0110     0.7920 h1         1 UNL       0.048033
     53 H21          5.5720    -0.6490     1.7850 h1         1 UNL       0.048033
     54 H22          5.8850    -2.3270     1.2190 h1         1 UNL       0.048033
     55 H23         -4.7900    -1.4340    -2.2040 ha         1 UNL       0.157000
@<TRIPOS>BOND
     1     1    29 1   
     2     2    31 1   
     3     3    14 1   
     4     3    15 1   
     5     4    16 1   
     6     4    17 1   
     7     5    20 1   
     8     5    26 1   
     9     6    10 1   
    10     6    11 1   
    11     6    12 1   
    12     7    23 1   
    13     7    24 1   
    14     7    48 1   
    15     8    21 ar  
    16     8    25 ar  
    17     9    23 ar  
    18     9    25 ar  
    19    10    13 1   
    20    10    32 1   
    21    10    33 1   
    22    11    14 1   
    23    11    34 1   
    24    11    35 1   
    25    12    15 1   
    26    12    36 1   
    27    12    37 1   
    28    13    16 1   
    29    13    38 1   
    30    13    39 1   
    31    14    40 1   
    32    14    41 1   
    33    15    42 1   
    34    15    43 1   
    35    16    44 1   
    36    16    45 1   
    37    17    19 ar  
    38    17    20 ar  
    39    18    19 ar  
    40    18    21 ar  
    41    18    23 ar  
    42    19    46 1   
    43    20    22 ar  
    44    21    22 ar  
    45    22    47 1   
    46    24    27 ar  
    47    24    28 ar  
    48    25    49 1   
    49    26    52 1   
    50    26    53 1   
    51    26    54 1   
    52    27    29 ar  
    53    27    50 1   
    54    28    30 ar  
    55    28    51 1   
    56    29    31 ar  
    57    30    31 ar  
    58    30    55 1   
@<TRIPOS>SUBSTRUCTURE
     1 UNL         1 TEMP              0 ****  ****    0 ROOT
