@<TRIPOS>MOLECULE
LIG1
57 60 1
SMALL
USER_CHARGES
@<TRIPOS>ATOM
1	N1    21.1650    -0.6130    53.1970	N.4	1	noname	0.0085
2	N2    24.9610     2.0920    52.2080	N.3	1	noname	0.0087
3	N3    24.1220     4.2450    48.7560	N.2	1	noname	-0.0891
4	N4    25.6890     3.2480    50.2560	N.2	1	noname	-0.1823
5	C1    20.0390     0.1750    53.7220	C.3	1	noname	-0.0089
6	C2    22.2740    -0.6650    54.1760	C.3	1	noname	0.0131
7	C3    20.7760    -2.0000    52.8580	C.3	1	noname	0.0131
8	C4    18.9320     0.4450    52.6870	C.3	1	noname	0.0196
9	C5    23.4490    -1.4990    53.6380	C.3	1	noname	0.0950
10	C6    21.9830    -2.8050    52.3530	C.3	1	noname	0.0950
11	C7    19.4420     1.1510    51.4310	C.3	1	noname	0.0596
12	C8    20.9220     2.8700    51.0120	C.2	1	noname	0.0913
13	C9    23.3270     3.0610    50.6870	C.2	1	noname	0.0715
14	C10    22.2180     2.6100    51.4430	C.2	1	noname	0.0549
15	C11    20.7170     3.5960    49.8460	C.2	1	noname	0.0846
16	C12    23.1160     3.7870    49.5080	C.2	1	noname	0.0655
17	C13    21.8100     4.0340    49.0980	C.2	1	noname	0.0955
18	C14    24.6720     2.8080    51.0180	C.2	1	noname	0.0682
19	C15    26.1240     1.3550    52.5090	C.2	1	noname	-0.0240
20	C16    25.3620     3.9560    49.1710	C.2	1	noname	0.1688
21	C17    18.8880     4.9760    49.9550	C.3	1	noname	0.0424
22	C18    26.5130     1.1960    53.8480	C.2	1	noname	-0.0095
23	C19    26.8370     0.6610    51.5210	C.2	1	noname	-0.0390
24	C20    27.6120     0.3980    54.1790	C.2	1	noname	0.0349
25	C21    27.9300    -0.1460    51.8510	C.2	1	noname	-0.0008
26	C22    28.3140    -0.2690    53.1800	C.2	1	noname	0.0272
27	O1    23.0330    -2.8350    53.3290	O.3	1	noname	-0.3680
28	O2    19.8820     2.4650    51.8000	O.3	1	noname	-0.2559
29	O3    19.4570     3.8130    49.3560	O.3	1	noname	-0.2601
30	Cl1    28.0720     0.2420    55.8310	Cl	1	noname	-0.0642
31	F1    29.3630    -1.0510    53.4800	F	1	noname	-0.1617
32	H1    19.5970    -0.3190    54.5970	H	1	noname	0.0941
33	H2    20.4130     1.1450    54.0710	H	1	noname	0.0941
34	H3    22.6340     0.3480    54.3910	H	1	noname	0.0964
35	H4    21.9220    -1.1080    55.1170	H	1	noname	0.0964
36	H5    20.3560    -2.4960    53.7430	H	1	noname	0.0964
37	H6    20.0170    -2.0060    52.0710	H	1	noname	0.0964
38	H7    18.4330    -0.4890    52.4080	H	1	noname	0.0357
39	H8    18.1760     1.0760    53.1680	H	1	noname	0.0357
40	H9    23.8850    -1.0400    52.7430	H	1	noname	0.0635
41	H10    24.2360    -1.5650    54.3960	H	1	noname	0.0635
42	H11    21.6810    -3.8400    52.1580	H	1	noname	0.0635
43	H12    22.3720    -2.3900    51.4150	H	1	noname	0.0635
44	H13    20.2290     0.5590    50.9470	H	1	noname	0.0574
45	H14    18.6170     1.2600    50.7190	H	1	noname	0.0574
46	H15    22.3600     2.0310    52.3500	H	1	noname	0.0661
47	H16    21.6390     4.5800    48.1720	H	1	noname	0.0716
48	H17    24.5960     2.6110    53.0000	H	1	noname	0.1357
49	H18    26.1800     4.3350    48.5680	H	1	noname	0.1506
50	H19    25.9670     1.7000    54.6400	H	1	noname	0.0656
51	H20    26.5350     0.7290    50.4780	H	1	noname	0.0640
52	H21    17.8640     5.0770    49.5780	H	1	noname	0.0535
53	H22    18.8390     4.8910    51.0450	H	1	noname	0.0535
54	H23    19.4460     5.8730    49.6670	H	1	noname	0.0535
55	H24    28.4750    -0.6820    51.0790	H	1	noname	0.0654
56	H25    21.4590    -0.1416    52.3535	H	1	noname	0.2581
57	H26    23.9538     4.7819    47.9172	H	1	noname	0.2947
@<TRIPOS>BOND
1	1	5	1
2	1	6	1
3	1	7	1
4	2	18	1
5	2	19	1
6	3	16	ar
7	3	20	ar
8	4	18	ar
9	4	20	ar
10	5	8	1
11	6	9	1
12	7	10	1
13	8	11	1
14	9	27	1
15	10	27	1
16	11	28	1
17	12	14	ar
18	12	15	ar
19	12	28	1
20	13	14	ar
21	13	16	ar
22	13	18	ar
23	15	17	ar
24	15	29	1
25	16	17	ar
26	19	22	ar
27	19	23	ar
28	21	29	1
29	22	24	ar
30	23	25	ar
31	24	26	ar
32	24	30	1
33	25	26	ar
34	26	31	1
35	5	32	1
36	5	33	1
37	6	34	1
38	6	35	1
39	7	36	1
40	7	37	1
41	8	38	1
42	8	39	1
43	9	40	1
44	9	41	1
45	10	42	1
46	10	43	1
47	11	44	1
48	11	45	1
49	14	46	1
50	17	47	1
51	2	48	1
52	20	49	1
53	22	50	1
54	23	51	1
55	21	52	1
56	21	53	1
57	21	54	1
58	25	55	1
59	1	56	1
60	3	57	1
@<TRIPOS>SUBSTRUCTURE
1	noname	1
