@<TRIPOS>MOLECULE
ligand_pose1.pdb
 34 37 0 0 0
SMALL
GASTEIGER

@<TRIPOS>ATOM
      1  N         21.3080   -1.2190   54.7480 N.pl3   1  LIG1       -0.2939
      2  HN        20.5550   -1.6010   55.3210 H       1  LIG1        0.1505
      3  N         23.6440   -0.8180   54.4630 N.pl3   1  LIG1       -0.2061
      4  HN        24.5910   -0.8950   54.8330 H       1  LIG1        0.2937
      5  C         20.4380    0.6290   51.1370 C.2     1  LIG1        0.1543
      6  C         22.0870   -0.1080   52.7680 C.2     1  LIG1        0.0749
      7  C         21.7640    0.5100   51.5370 C.3     1  LIG1        0.1018
      8  C         19.4280    0.1160   51.9400 C.2     1  LIG1        0.1697
      9  C         21.0650   -0.6190   53.5790 C.2     1  LIG1        0.0538
     10  C         19.7460   -0.4880   53.1570 C.2     1  LIG1        0.0540
     11  C         23.3930   -0.2340   53.2780 C.2     1  LIG1        0.2682
     12  C         22.5890   -1.2940   55.1310 C.3     1  LIG1        0.2979
     13  O         20.1750    1.1820   49.9160 O.2     1  LIG1       -0.4763
     14  C         21.2830    1.0060   49.0240 C.3     1  LIG1        0.2065
     15  C         21.3760    2.2370   48.1220 C.3     1  LIG1        0.0646
     16  C         22.5340    3.1780   48.4990 C.3     1  LIG1        0.0761
     17  N         22.6480    3.4320   49.9440 N.3     1  LIG1       -0.2683
     18  C         24.0690    3.5090   50.3550 C.3     1  LIG1        0.1046
     19  C         24.1940    3.7880   51.8620 C.3     1  LIG1        0.1595
     20  O         23.5370    5.0110   52.2150 O.3     1  LIG1       -0.3508
     21  C         22.1500    4.9400   51.8570 C.3     1  LIG1        0.1595
     22  C         21.9760    4.6850   50.3520 C.3     1  LIG1        0.1046
     23  O         18.1080    0.2730   51.6110 O.2     1  LIG1       -0.4687
     24  C         17.3310   -0.7880   52.1630 C.3     1  LIG1        0.2526
     25  N         24.4800    0.2470   52.5030 N.pl3   1  LIG1       -0.2040
     26  H         24.2470    0.1560   51.5190 H       1  LIG1        0.2982
     27  C         25.8560    0.1040   52.7660 C.ar    1  LIG1        0.1364
     28  C         26.6090    1.2280   53.1390 C.ar    1  LIG1        0.0538
     29  C         27.9560    1.0990   53.4910 C.ar    1  LIG1        0.0884
     30 CL         28.8520    2.5040   53.9230 Cl      1  LIG1       -0.0798
     31  C         28.5540   -0.1570   53.4990 C.ar    1  LIG1        0.1508
     32  F         29.8420   -0.3030   53.8470 F       1  LIG1       -0.2033
     33  C         27.8220   -1.2870   53.1590 C.ar    1  LIG1        0.0340
     34  C         26.4770   -1.1540   52.7980 C.ar    1  LIG1        0.0425
@<TRIPOS>BOND
     1     1     9    1
     2     1    12    1
     3     1     2    1
     4     3    11    1
     5     3     4    1
     6     3    12    1
     7     5    13    1
     8     5     7    1
     9     5     8    2
    10     6     7    1
    11     6    11    2
    12     6     9    1
    13     8    23    1
    14     8    10    1
    15     9    10    2
    16    11    25    1
    17    13    14    1
    18    14    15    1
    19    15    16    1
    20    16    17    1
    21    17    22    1
    22    17    18    1
    23    18    19    1
    24    19    20    1
    25    20    21    1
    26    21    22    1
    27    23    24    1
    28    25    26    1
    29    25    27    1
    30    27    34   ar
    31    27    28   ar
    32    28    29   ar
    33    29    31   ar
    34    29    30    1
    35    31    33   ar
    36    31    32    1
    37    33    34   ar
