# created with PyMOL 2.3.0
@<TRIPOS>MOLECULE
ligand
55 58 1                 
SMALL
USER_CHARGES
@<TRIPOS>ATOM
1	   N	21.165	-0.613	53.197	N.3	1	LIG1	0.000	
2	   N	24.961	2.092	52.208	N.pl3	1	LIG1	0.000	
3	   N	24.122	4.245	48.756	N.2	1	LIG1	0.000	
4	   N	25.689	3.248	50.256	N.2	1	LIG1	0.000	
5	   C	20.039	0.175	53.722	C.3	1	LIG1	0.000	
6	   C	22.274	-0.665	54.176	C.3	1	LIG1	0.000	
7	   C	20.776	-2.000	52.858	C.3	1	LIG1	0.000	
8	   C	18.932	0.445	52.687	C.3	1	LIG1	0.000	
9	   C	23.449	-1.499	53.638	C.3	1	LIG1	0.000	
10	   C	21.983	-2.805	52.353	C.3	1	LIG1	0.000	
11	   C	19.442	1.151	51.431	C.3	1	LIG1	0.000	
12	   C	20.922	2.870	51.012	C.2	1	LIG1	0.000	
13	   C	23.327	3.061	50.687	C.2	1	LIG1	0.000	
14	   C	22.218	2.610	51.443	C.2	1	LIG1	0.000	
15	   C	20.717	3.596	49.846	C.2	1	LIG1	0.000	
16	   C	23.116	3.787	49.508	C.2	1	LIG1	0.000	
17	   C	21.810	4.034	49.098	C.2	1	LIG1	0.000	
18	   C	24.672	2.808	51.018	C.2	1	LIG1	0.000	
19	   C	26.124	1.355	52.509	C.2	1	LIG1	0.000	
20	   C	25.362	3.956	49.171	C.2	1	LIG1	0.000	
21	   C	18.888	4.976	49.955	C.3	1	LIG1	0.000	
22	   C	26.513	1.196	53.848	C.2	1	LIG1	0.000	
23	   C	26.837	0.661	51.521	C.2	1	LIG1	0.000	
24	   C	27.612	0.398	54.179	C.2	1	LIG1	0.000	
25	   C	27.930	-0.146	51.851	C.2	1	LIG1	0.000	
26	   C	28.314	-0.269	53.180	C.2	1	LIG1	0.000	
27	   O	23.033	-2.835	53.329	O.3	1	LIG1	0.000	
28	   O	19.882	2.465	51.800	O.3	1	LIG1	0.000	
29	   O	19.457	3.813	49.356	O.3	1	LIG1	0.000	
30	  CL	28.072	0.242	55.831	Cl	1	LIG1	0.000	
31	   F	29.363	-1.051	53.480	 F	1	LIG1	0.000	
32	   H	19.597	-0.319	54.597	 H	1	LIG1	0.000	
33	   H	20.413	1.145	54.071	 H	1	LIG1	0.000	
34	   H	22.634	0.348	54.391	 H	1	LIG1	0.000	
35	   H	21.922	-1.108	55.117	 H	1	LIG1	0.000	
36	   H	20.356	-2.496	53.743	 H	1	LIG1	0.000	
37	   H	20.017	-2.006	52.071	 H	1	LIG1	0.000	
38	   H	18.433	-0.489	52.408	 H	1	LIG1	0.000	
39	   H	18.176	1.076	53.168	 H	1	LIG1	0.000	
40	   H	23.885	-1.040	52.743	 H	1	LIG1	0.000	
41	   H	24.236	-1.565	54.396	 H	1	LIG1	0.000	
42	   H	21.681	-3.840	52.158	 H	1	LIG1	0.000	
43	   H	22.372	-2.390	51.415	 H	1	LIG1	0.000	
44	   H	20.229	0.559	50.947	 H	1	LIG1	0.000	
45	   H	18.617	1.260	50.719	 H	1	LIG1	0.000	
46	   H	22.360	2.031	52.350	 H	1	LIG1	0.000	
47	   H	21.639	4.580	48.172	 H	1	LIG1	0.000	
48	   H	24.596	2.611	53.000	 H	1	LIG1	0.000	
49	   H	26.180	4.335	48.568	 H	1	LIG1	0.000	
50	   H	25.967	1.700	54.640	 H	1	LIG1	0.000	
51	   H	26.535	0.729	50.478	 H	1	LIG1	0.000	
52	   H	17.864	5.077	49.578	 H	1	LIG1	0.000	
53	   H	18.839	4.891	51.045	 H	1	LIG1	0.000	
54	   H	19.446	5.873	49.667	 H	1	LIG1	0.000	
55	   H	28.475	-0.682	51.079	 H	1	LIG1	0.000	
@<TRIPOS>BOND
1 1 5 1
2 1 6 1
3 1 7 1
4 2 18 1
5 2 19 1
6 2 48 1
7 3 16 ar
8 3 20 ar
9 4 18 ar
10 4 20 ar
11 5 8 1
12 5 32 1
13 5 33 1
14 6 9 1
15 6 34 1
16 6 35 1
17 7 10 1
18 7 36 1
19 7 37 1
20 8 11 1
21 8 38 1
22 8 39 1
23 9 27 1
24 9 40 1
25 9 41 1
26 10 27 1
27 10 42 1
28 10 43 1
29 11 28 1
30 11 44 1
31 11 45 1
32 12 14 ar
33 12 15 ar
34 12 28 1
35 13 14 ar
36 13 16 ar
37 13 18 ar
38 14 46 1
39 15 17 ar
40 15 29 1
41 16 17 ar
42 17 47 1
43 19 22 ar
44 19 23 ar
45 20 49 1
46 21 29 1
47 21 52 1
48 21 53 1
49 21 54 1
50 22 24 ar
51 22 50 1
52 23 25 ar
53 23 51 1
54 24 26 ar
55 24 30 1
56 25 26 ar
57 25 55 1
58 26 31 1
@<TRIPOS>SUBSTRUCTURE
1	LIG1	1	GROUP	1 ****	LIG
