
 OpenBabel05112615523D

 63 64  0  0  0  0  0  0  0  0999 V2000
    2.8989   -1.7567   -3.3041 C   0  0  0  0  0  0  0  0  0  0  0  0
    3.6800   -0.7280   -2.9771 C   0  0  0  0  0  0  0  0  0  0  0  0
    3.9777   -0.3193   -1.5643 C   0  0  0  0  0  0  0  0  0  0  0  0
    3.4157   -0.8836   -0.6373 O   0  0  0  0  0  0  0  0  0  0  0  0
    4.8388    0.7083   -1.3019 N   0  0  0  0  0  0  0  0  0  0  0  0
    5.5580    1.3059   -2.3657 C   0  0  0  0  0  0  0  0  0  0  0  0
    6.5556    0.5452   -2.9950 C   0  0  0  0  0  0  0  0  0  0  0  0
    7.1732    1.0020   -4.1694 C   0  0  0  0  0  0  0  0  0  0  0  0
    8.1154    0.2346   -4.8924 C   0  0  0  0  0  0  0  0  0  0  0  0
    8.5866   -1.0251   -4.4076 N   0  0  0  0  0  0  0  0  0  0  0  0
    8.9403   -2.1293   -5.2423 C   0  0  0  0  0  0  0  0  0  0  0  0
    8.4820   -2.2326   -6.5717 C   0  0  0  0  0  0  0  0  0  0  0  0
    8.7734   -3.3667   -7.3344 C   0  0  0  0  0  0  0  0  0  0  0  0
    9.5344   -4.4040   -6.7910 C   0  0  0  0  0  0  0  0  0  0  0  0
    9.8005   -5.5036   -7.5391 F   0  0  0  0  0  0  0  0  0  0  0  0
   10.0070   -4.3093   -5.4775 C   0  0  0  0  0  0  0  0  0  0  0  0
   10.9673   -5.6062   -4.7860 Cl  0  0  0  0  0  0  0  0  0  0  0  0
    9.7021   -3.1823   -4.7053 C   0  0  0  0  0  0  0  0  0  0  0  0
    8.5952    0.7252   -6.0645 N   0  0  0  0  0  0  0  0  0  0  0  0
    8.2113    1.9329   -6.5486 C   0  0  0  0  0  0  0  0  0  0  0  0
    7.3144    2.6850   -5.8669 N   0  0  0  0  0  0  0  0  0  0  0  0
    6.7745    2.2472   -4.6994 C   0  0  0  0  0  0  0  0  0  0  0  0
    5.8030    3.0210   -4.0531 C   0  0  0  0  0  0  0  0  0  0  0  0
    5.1755    2.5572   -2.8778 C   0  0  0  0  0  0  0  0  0  0  0  0
    4.1825    3.2511   -2.2496 O   0  0  0  0  0  0  0  0  0  0  0  0
    3.5978    4.4399   -2.6645 C   0  0  0  0  0  0  0  0  0  0  0  0
    2.4518    4.1984   -3.6651 C   0  0  0  0  0  0  0  0  0  0  0  0
    1.3015    3.4191   -3.0025 C   0  0  0  0  0  0  0  0  0  0  0  0
    0.0890    3.2941   -3.8537 N   0  0  0  0  0  0  0  0  0  0  0  0
   -1.0069    2.6278   -3.1175 C   0  0  0  0  0  0  0  0  0  0  0  0
   -0.7244    1.1203   -2.9611 C   0  0  0  0  0  0  0  0  0  0  0  0
   -0.5887    0.5059   -4.2286 O   0  0  0  0  0  0  0  0  0  0  0  0
    0.4918    1.0853   -4.9394 C   0  0  0  0  0  0  0  0  0  0  0  0
    0.2780    2.5955   -5.1428 C   0  0  0  0  0  0  0  0  0  0  0  0
    0.2968   -3.1313   -0.7125 Cl  0  0  0  0  0  0  0  0  0  0  0  0
   -0.1918    0.0532    2.7441 Cl  0  0  0  0  0  0  0  0  0  0  0  0
    2.7291   -1.9781   -4.3541 H   0  0  0  0  0  0  0  0  0  0  0  0
    2.4398   -2.3830   -2.5508 H   0  0  0  0  0  0  0  0  0  0  0  0
    4.0976   -0.1624   -3.8052 H   0  0  0  0  0  0  0  0  0  0  0  0
    4.9776    1.0443   -0.3357 H   0  0  0  0  0  0  0  0  0  0  0  0
    6.7904   -0.4240   -2.5764 H   0  0  0  0  0  0  0  0  0  0  0  0
    8.6519   -1.1706   -3.3901 H   0  0  0  0  0  0  0  0  0  0  0  0
    7.8664   -1.4637   -7.0154 H   0  0  0  0  0  0  0  0  0  0  0  0
    8.3952   -3.4460   -8.3452 H   0  0  0  0  0  0  0  0  0  0  0  0
   10.0610   -3.1247   -3.6847 H   0  0  0  0  0  0  0  0  0  0  0  0
    8.6204    2.2964   -7.4808 H   0  0  0  0  0  0  0  0  0  0  0  0
    5.5206    3.9593   -4.5047 H   0  0  0  0  0  0  0  0  0  0  0  0
    4.3581    5.1258   -3.0891 H   0  0  0  0  0  0  0  0  0  0  0  0
    3.1875    4.9627   -1.7744 H   0  0  0  0  0  0  0  0  0  0  0  0
    2.8512    3.6533   -4.5449 H   0  0  0  0  0  0  0  0  0  0  0  0
    2.0630    5.1847   -4.0003 H   0  0  0  0  0  0  0  0  0  0  0  0
    1.0105    3.9905   -2.0927 H   0  0  0  0  0  0  0  0  0  0  0  0
    1.6859    2.4330   -2.6791 H   0  0  0  0  0  0  0  0  0  0  0  0
   -1.9541    2.7449   -3.6895 H   0  0  0  0  0  0  0  0  0  0  0  0
   -1.1672    3.1047   -2.1262 H   0  0  0  0  0  0  0  0  0  0  0  0
   -1.5840    0.6563   -2.4336 H   0  0  0  0  0  0  0  0  0  0  0  0
    0.1640    0.9144   -2.3257 H   0  0  0  0  0  0  0  0  0  0  0  0
    0.5367    0.6122   -5.9434 H   0  0  0  0  0  0  0  0  0  0  0  0
    1.4588    0.8706   -4.4361 H   0  0  0  0  0  0  0  0  0  0  0  0
   -0.6424    2.7340   -5.7538 H   0  0  0  0  0  0  0  0  0  0  0  0
    1.1027    3.0393   -5.7346 H   0  0  0  0  0  0  0  0  0  0  0  0
    1.5696   -2.9394   -0.2268 H   0  0  0  0  0  0  0  0  0  0  0  0
    0.8891    0.8152    2.3659 H   0  0  0  0  0  0  0  0  0  0  0  0
  1  2  2  0  0  0  0
  1 37  1  0  0  0  0
  1 38  1  0  0  0  0
  2  3  1  0  0  0  0
  2 39  1  0  0  0  0
  3  4  2  0  0  0  0
  3  5  1  0  0  0  0
  5  6  1  0  0  0  0
  5 40  1  0  0  0  0
  6  7  1  0  0  0  0
  6 24  2  0  0  0  0
  7  8  2  0  0  0  0
  7 41  1  0  0  0  0
  8  9  1  0  0  0  0
  8 22  1  0  0  0  0
  9 10  1  0  0  0  0
  9 19  2  0  0  0  0
 10 11  1  0  0  0  0
 10 42  1  0  0  0  0
 11 12  1  0  0  0  0
 11 18  2  0  0  0  0
 12 13  2  0  0  0  0
 12 43  1  0  0  0  0
 13 14  1  0  0  0  0
 13 44  1  0  0  0  0
 14 15  1  0  0  0  0
 14 16  2  0  0  0  0
 16 17  1  0  0  0  0
 16 18  1  0  0  0  0
 18 45  1  0  0  0  0
 19 20  1  0  0  0  0
 20 21  2  0  0  0  0
 20 46  1  0  0  0  0
 21 22  1  0  0  0  0
 22 23  2  0  0  0  0
 23 24  1  0  0  0  0
 23 47  1  0  0  0  0
 24 25  1  0  0  0  0
 25 26  1  0  0  0  0
 26 27  1  0  0  0  0
 26 48  1  0  0  0  0
 26 49  1  0  0  0  0
 27 28  1  0  0  0  0
 27 50  1  0  0  0  0
 27 51  1  0  0  0  0
 28 29  1  0  0  0  0
 28 52  1  0  0  0  0
 28 53  1  0  0  0  0
 29 30  1  0  0  0  0
 29 34  1  0  0  0  0
 30 31  1  0  0  0  0
 30 54  1  0  0  0  0
 30 55  1  0  0  0  0
 31 32  1  0  0  0  0
 31 56  1  0  0  0  0
 31 57  1  0  0  0  0
 32 33  1  0  0  0  0
 33 34  1  0  0  0  0
 33 58  1  0  0  0  0
 33 59  1  0  0  0  0
 34 60  1  0  0  0  0
 34 61  1  0  0  0  0
 35 62  1  0  0  0  0
 36 63  1  0  0  0  0
M  END
$$$$
