
 OpenBabel05112615523D

 39 41  0  0  0  0  0  0  0  0999 V2000
    1.0952    0.8825   -0.1919 C   0  0  0  0  0  0  0  0  0  0  0  0
    2.5357    0.7150   -0.0632 N   0  0  0  0  0  0  0  0  0  0  0  0
    3.0206    0.0770    1.1473 C   0  0  0  0  0  0  0  0  0  0  0  0
    2.7422    0.9552    2.2196 O   0  0  0  0  0  0  0  0  0  0  0  0
    3.1636    0.4972   -1.2662 N   0  0  0  0  0  0  0  0  0  0  0  0
    4.3856    0.2822   -1.1545 N   0  0  0  0  0  0  0  0  0  0  0  0
    5.0078    0.0271   -2.3916 C   0  0  0  0  0  0  0  0  0  0  0  0
    4.6155    0.6122   -3.5977 C   0  0  0  0  0  0  0  0  0  0  0  0
    5.3203    0.3529   -4.7774 C   0  0  0  0  0  0  0  0  0  0  0  0
    6.4240   -0.4863   -4.7990 C   0  0  0  0  0  0  0  0  0  0  0  0
    7.0578   -0.6616   -5.9601 N   0  0  0  0  0  0  0  0  0  0  0  0
    8.1265   -1.4626   -5.9417 C   0  0  0  0  0  0  0  0  0  0  0  0
    8.6018   -2.1124   -4.8780 N   0  0  0  0  0  0  0  0  0  0  0  0
    7.9451   -1.9482   -3.7139 C   0  0  0  0  0  0  0  0  0  0  0  0
    8.4032   -2.6706   -2.5741 N   0  0  0  0  0  0  0  0  0  0  0  0
    9.6402   -3.3596   -2.5298 C   0  0  0  0  0  0  0  0  0  0  0  0
   10.8271   -2.7154   -2.9118 C   0  0  0  0  0  0  0  0  0  0  0  0
   12.0419   -3.4006   -2.9451 C   0  0  0  0  0  0  0  0  0  0  0  0
   12.0872   -4.7447   -2.5870 C   0  0  0  0  0  0  0  0  0  0  0  0
   10.9193   -5.3858   -2.1767 C   0  0  0  0  0  0  0  0  0  0  0  0
   10.9830   -7.2159   -1.7004 Br  0  0  0  0  0  0  0  0  0  0  0  0
    9.7013   -4.7011   -2.1340 C   0  0  0  0  0  0  0  0  0  0  0  0
    6.8270   -1.1007   -3.6062 C   0  0  0  0  0  0  0  0  0  0  0  0
    6.1188   -0.8234   -2.4062 C   0  0  0  0  0  0  0  0  0  0  0  0
    0.6329    1.0234    0.7888 H   0  0  0  0  0  0  0  0  0  0  0  0
    0.6678   -0.0035   -0.6713 H   0  0  0  0  0  0  0  0  0  0  0  0
    0.8989    1.7672   -0.8046 H   0  0  0  0  0  0  0  0  0  0  0  0
    4.1011   -0.0843    1.1299 H   0  0  0  0  0  0  0  0  0  0  0  0
    2.5099   -0.8785    1.2963 H   0  0  0  0  0  0  0  0  0  0  0  0
    3.0774    1.8120    1.9040 H   0  0  0  0  0  0  0  0  0  0  0  0
    3.7655    1.2898   -3.6306 H   0  0  0  0  0  0  0  0  0  0  0  0
    5.0029    0.8274   -5.7029 H   0  0  0  0  0  0  0  0  0  0  0  0
    8.6601   -1.5969   -6.8751 H   0  0  0  0  0  0  0  0  0  0  0  0
    7.6393   -3.2371   -2.2196 H   0  0  0  0  0  0  0  0  0  0  0  0
   10.8008   -1.6690   -3.2081 H   0  0  0  0  0  0  0  0  0  0  0  0
   12.9430   -2.8859   -3.2670 H   0  0  0  0  0  0  0  0  0  0  0  0
   13.0308   -5.2809   -2.6371 H   0  0  0  0  0  0  0  0  0  0  0  0
    8.8015   -5.2259   -1.8281 H   0  0  0  0  0  0  0  0  0  0  0  0
    6.4509   -1.2551   -1.4643 H   0  0  0  0  0  0  0  0  0  0  0  0
  1  2  1  0  0  0  0
  1 25  1  0  0  0  0
  1 26  1  0  0  0  0
  1 27  1  0  0  0  0
  2  3  1  0  0  0  0
  2  5  1  0  0  0  0
  3  4  1  0  0  0  0
  3 28  1  0  0  0  0
  3 29  1  0  0  0  0
  4 30  1  0  0  0  0
  5  6  2  0  0  0  0
  6  7  1  0  0  0  0
  7  8  1  0  0  0  0
  7 24  2  0  0  0  0
  8  9  2  0  0  0  0
  8 31  1  0  0  0  0
  9 10  1  0  0  0  0
  9 32  1  0  0  0  0
 10 11  1  0  0  0  0
 10 23  2  0  0  0  0
 11 12  2  0  0  0  0
 12 13  1  0  0  0  0
 12 33  1  0  0  0  0
 13 14  2  0  0  0  0
 14 15  1  0  0  0  0
 14 23  1  0  0  0  0
 15 16  1  0  0  0  0
 15 34  1  0  0  0  0
 16 17  1  0  0  0  0
 16 22  2  0  0  0  0
 17 18  2  0  0  0  0
 17 35  1  0  0  0  0
 18 19  1  0  0  0  0
 18 36  1  0  0  0  0
 19 20  2  0  0  0  0
 19 37  1  0  0  0  0
 20 21  1  0  0  0  0
 20 22  1  0  0  0  0
 22 38  1  0  0  0  0
 23 24  1  0  0  0  0
 24 39  1  0  0  0  0
M  END
$$$$
