
 OpenBabel05112615533D

 50 53  0  0  0  0  0  0  0  0999 V2000
    2.8602    1.7966    0.9624 C   0  0  0  0  0  0  0  0  0  0  0  0
    2.5252    0.5626    0.1218 C   0  0  0  0  0  0  0  0  0  0  0  0
    2.9124   -0.7135    0.8750 C   0  0  0  0  0  0  0  0  0  0  0  0
    1.0925    0.5310   -0.0379 O   0  0  0  0  0  0  0  0  0  0  0  0
    3.1470    0.6375   -1.2982 C   0  0  0  0  0  0  0  0  0  0  0  0
    4.5955    0.7010   -1.3060 N   0  0  0  0  0  0  0  0  0  0  0  0
    5.3844    1.8670   -1.2653 C   0  0  0  0  0  0  0  0  0  0  0  0
    4.9420    3.0840   -1.2927 N   0  0  0  0  0  0  0  0  0  0  0  0
    5.8721    4.0984   -1.3445 C   0  0  0  0  0  0  0  0  0  0  0  0
    7.0919    3.9664   -1.4035 O   0  0  0  0  0  0  0  0  0  0  0  0
    5.3238    5.4743   -1.4115 C   0  0  0  0  0  0  0  0  0  0  0  0
    4.1468    5.8237   -0.7622 C   0  0  0  0  0  0  0  0  0  0  0  0
    3.7113    7.1256   -0.9035 C   0  0  0  0  0  0  0  0  0  0  0  0
    4.3436    8.0546   -1.6576 N   0  0  0  0  0  0  0  0  0  0  0  0
    5.4889    7.7012   -2.2966 C   0  0  0  0  0  0  0  0  0  0  0  0
    6.0747    8.7155   -3.1900 C   0  0  0  0  0  0  0  0  0  0  0  0
    5.2719    9.6510   -3.8605 C   0  0  0  0  0  0  0  0  0  0  0  0
    5.8300   10.5533   -4.7654 C   0  0  0  0  0  0  0  0  0  0  0  0
    7.1957   10.5084   -4.9763 C   0  0  0  0  0  0  0  0  0  0  0  0
    8.0192    9.6492   -4.3430 N   0  0  0  0  0  0  0  0  0  0  0  0
    7.4415    8.7858   -3.4686 C   0  0  0  0  0  0  0  0  0  0  0  0
    6.0162    6.4222   -2.1704 C   0  0  0  0  0  0  0  0  0  0  0  0
    6.7060    1.4338   -1.2131 N   0  0  0  0  0  0  0  0  0  0  0  0
    6.7582    0.0503   -1.3353 C   0  0  0  0  0  0  0  0  0  0  0  0
    7.8397   -0.7983   -1.3021 C   0  0  0  0  0  0  0  0  0  0  0  0
    7.5805   -2.1693   -1.3599 C   0  0  0  0  0  0  0  0  0  0  0  0
    6.2599   -2.6481   -1.4516 C   0  0  0  0  0  0  0  0  0  0  0  0
    5.1710   -1.7678   -1.4696 C   0  0  0  0  0  0  0  0  0  0  0  0
    5.4314   -0.4170   -1.3803 C   0  0  0  0  0  0  0  0  0  0  0  0
    2.3209    1.7794    1.9161 H   0  0  0  0  0  0  0  0  0  0  0  0
    2.5461    2.7117    0.4482 H   0  0  0  0  0  0  0  0  0  0  0  0
    3.9295    1.8644    1.1834 H   0  0  0  0  0  0  0  0  0  0  0  0
    2.3838   -0.7770    1.8334 H   0  0  0  0  0  0  0  0  0  0  0  0
    3.9841   -0.7626    1.0850 H   0  0  0  0  0  0  0  0  0  0  0  0
    2.6161   -1.6031    0.3080 H   0  0  0  0  0  0  0  0  0  0  0  0
    0.6965    0.4066    0.8424 H   0  0  0  0  0  0  0  0  0  0  0  0
    2.7369    1.5143   -1.8182 H   0  0  0  0  0  0  0  0  0  0  0  0
    2.7903   -0.2117   -1.8971 H   0  0  0  0  0  0  0  0  0  0  0  0
    3.5909    5.1123   -0.1627 H   0  0  0  0  0  0  0  0  0  0  0  0
    2.8081    7.4727   -0.4088 H   0  0  0  0  0  0  0  0  0  0  0  0
    4.1966    9.6644   -3.6922 H   0  0  0  0  0  0  0  0  0  0  0  0
    5.2088   11.2651   -5.2970 H   0  0  0  0  0  0  0  0  0  0  0  0
    7.6771   11.1806   -5.6805 H   0  0  0  0  0  0  0  0  0  0  0  0
    8.1544    8.1254   -2.9811 H   0  0  0  0  0  0  0  0  0  0  0  0
    6.9200    6.1303   -2.6967 H   0  0  0  0  0  0  0  0  0  0  0  0
    7.4756    2.0716   -1.3569 H   0  0  0  0  0  0  0  0  0  0  0  0
    8.8521   -0.4221   -1.2231 H   0  0  0  0  0  0  0  0  0  0  0  0
    8.4076   -2.8751   -1.3271 H   0  0  0  0  0  0  0  0  0  0  0  0
    6.0840   -3.7212   -1.4961 H   0  0  0  0  0  0  0  0  0  0  0  0
    4.1616   -2.1543   -1.5365 H   0  0  0  0  0  0  0  0  0  0  0  0
  1  2  1  0  0  0  0
  1 30  1  0  0  0  0
  1 31  1  0  0  0  0
  1 32  1  0  0  0  0
  2  3  1  0  0  0  0
  2  4  1  0  0  0  0
  2  5  1  0  0  0  0
  3 33  1  0  0  0  0
  3 34  1  0  0  0  0
  3 35  1  0  0  0  0
  4 36  1  0  0  0  0
  5  6  1  0  0  0  0
  5 37  1  0  0  0  0
  5 38  1  0  0  0  0
  6  7  1  0  0  0  0
  6 29  1  0  0  0  0
  7  8  2  0  0  0  0
  7 23  1  0  0  0  0
  8  9  1  0  0  0  0
  9 10  2  0  0  0  0
  9 11  1  0  0  0  0
 11 12  1  0  0  0  0
 11 22  2  0  0  0  0
 12 13  2  0  0  0  0
 12 39  1  0  0  0  0
 13 14  1  0  0  0  0
 13 40  1  0  0  0  0
 14 15  2  0  0  0  0
 15 16  1  0  0  0  0
 15 22  1  0  0  0  0
 16 17  1  0  0  0  0
 16 21  2  0  0  0  0
 17 18  2  0  0  0  0
 17 41  1  0  0  0  0
 18 19  1  0  0  0  0
 18 42  1  0  0  0  0
 19 20  2  0  0  0  0
 19 43  1  0  0  0  0
 20 21  1  0  0  0  0
 21 44  1  0  0  0  0
 22 45  1  0  0  0  0
 23 24  1  0  0  0  0
 23 46  1  0  0  0  0
 24 25  1  0  0  0  0
 24 29  2  0  0  0  0
 25 26  2  0  0  0  0
 25 47  1  0  0  0  0
 26 27  1  0  0  0  0
 26 48  1  0  0  0  0
 27 28  2  0  0  0  0
 27 49  1  0  0  0  0
 28 29  1  0  0  0  0
 28 50  1  0  0  0  0
M  END
$$$$
