
 OpenBabel05112615533D

 69 75  0  0  0  0  0  0  0  0999 V2000
    3.9247   -1.5436    0.4428 C   0  0  0  0  0  0  0  0  0  0  0  0
    5.3305   -1.3052    0.7776 N   0  0  0  0  0  0  0  0  0  0  0  0
    6.0633   -2.5706    0.6692 C   0  0  0  0  0  0  0  0  0  0  0  0
    5.8942   -0.3002   -0.1381 C   0  0  0  0  0  0  0  0  0  0  0  0
    5.1356    1.0222   -0.0311 C   0  0  0  0  0  0  0  0  0  0  0  0
    5.1983    1.5975    1.3721 C   0  0  0  0  0  0  0  0  0  0  0  0
    6.5764    1.8520    1.7742 N   0  0  0  0  0  0  0  0  0  0  0  0
    7.3565    2.7068    1.0722 N   0  0  0  0  0  0  0  0  0  0  0  0
    8.5470    2.6642    1.6998 C   0  0  0  0  0  0  0  0  0  0  0  0
    9.6561    3.5049    1.3854 C   0  0  0  0  0  0  0  0  0  0  0  0
    9.9312    4.7120    1.9243 C   0  0  0  0  0  0  0  0  0  0  0  0
    9.1265    5.4484    2.9138 C   0  0  0  0  0  0  0  0  0  0  0  0
    8.0944    6.3768    2.7346 C   0  0  0  0  0  0  0  0  0  0  0  0
    7.7300    7.1127    3.9576 N   0  0  0  0  0  0  0  0  0  0  0  0
    6.6620    8.3412    4.0286 C   0  0  0  0  0  0  0  0  0  0  0  0
    5.7630    8.8481    5.0281 C   0  0  0  0  0  0  0  0  0  0  0  0
    5.2526   10.1141    4.6460 N   0  0  0  0  0  0  0  0  0  0  0  0
    4.9620   10.3796    3.4020 C   0  0  0  0  0  0  0  0  0  0  0  0
    3.8001   11.0711    3.2497 C   0  0  0  0  0  0  0  0  0  0  0  0
    3.2794   11.2895    1.9920 C   0  0  0  0  0  0  0  0  0  0  0  0
    4.0428   10.8718    0.8652 C   0  0  0  0  0  0  0  0  0  0  0  0
    5.3132   10.2480    1.0145 C   0  0  0  0  0  0  0  0  0  0  0  0
    5.6696    9.8653    2.3462 C   0  0  0  0  0  0  0  0  0  0  0  0
    6.6710    9.0101    2.7977 C   0  0  0  0  0  0  0  0  0  0  0  0
    8.4028    6.3149    4.9375 C   0  0  0  0  0  0  0  0  0  0  0  0
    8.2775    6.2343    6.3254 C   0  0  0  0  0  0  0  0  0  0  0  0
    9.2151    5.4742    7.0561 C   0  0  0  0  0  0  0  0  0  0  0  0
   10.2236    4.7361    6.4441 C   0  0  0  0  0  0  0  0  0  0  0  0
   10.2714    4.6688    5.0627 C   0  0  0  0  0  0  0  0  0  0  0  0
    9.3327    5.4193    4.3054 C   0  0  0  0  0  0  0  0  0  0  0  0
   11.1478    5.1893    1.1520 C   0  0  0  0  0  0  0  0  0  0  0  0
   11.7137    6.2658    1.2516 O   0  0  0  0  0  0  0  0  0  0  0  0
   11.5454    4.1988    0.3101 N   0  0  0  0  0  0  0  0  0  0  0  0
   10.7180    3.1392    0.4025 C   0  0  0  0  0  0  0  0  0  0  0  0
   10.8597    2.0822   -0.1870 O   0  0  0  0  0  0  0  0  0  0  0  0
    8.5184    1.7653    2.8015 C   0  0  0  0  0  0  0  0  0  0  0  0
    9.4322    1.3552    3.7898 C   0  0  0  0  0  0  0  0  0  0  0  0
    9.0296    0.4229    4.7478 C   0  0  0  0  0  0  0  0  0  0  0  0
    7.7316   -0.0784    4.7462 C   0  0  0  0  0  0  0  0  0  0  0  0
    6.8037    0.3176    3.7797 C   0  0  0  0  0  0  0  0  0  0  0  0
    7.2256    1.2515    2.8245 C   0  0  0  0  0  0  0  0  0  0  0  0
    3.4882   -2.2795    1.1267 H   0  0  0  0  0  0  0  0  0  0  0  0
    3.8155   -1.9168   -0.5821 H   0  0  0  0  0  0  0  0  0  0  0  0
    3.3388   -0.6237    0.5416 H   0  0  0  0  0  0  0  0  0  0  0  0
    5.6552   -3.3197    1.3519 H   0  0  0  0  0  0  0  0  0  0  0  0
    7.1092   -2.4582    0.9657 H   0  0  0  0  0  0  0  0  0  0  0  0
    6.0343   -2.9568   -0.3558 H   0  0  0  0  0  0  0  0  0  0  0  0
    5.8214   -0.6681   -1.1711 H   0  0  0  0  0  0  0  0  0  0  0  0
    6.9582   -0.1408    0.0772 H   0  0  0  0  0  0  0  0  0  0  0  0
    4.0764    0.8868   -0.2661 H   0  0  0  0  0  0  0  0  0  0  0  0
    5.5422    1.7258   -0.7682 H   0  0  0  0  0  0  0  0  0  0  0  0
    4.7558    0.8951    2.0858 H   0  0  0  0  0  0  0  0  0  0  0  0
    4.6356    2.5371    1.4230 H   0  0  0  0  0  0  0  0  0  0  0  0
    7.6473    6.6280    1.7857 H   0  0  0  0  0  0  0  0  0  0  0  0
    5.0081    9.3038    5.8369 H   0  0  0  0  0  0  0  0  0  0  0  0
    3.2544   11.4055    4.1187 H   0  0  0  0  0  0  0  0  0  0  0  0
    2.3185   11.7882    1.8402 H   0  0  0  0  0  0  0  0  0  0  0  0
    3.6807   11.0572   -0.1593 H   0  0  0  0  0  0  0  0  0  0  0  0
    5.9417    9.9648    0.1434 H   0  0  0  0  0  0  0  0  0  0  0  0
    7.4499    8.7931    2.1076 H   0  0  0  0  0  0  0  0  0  0  0  0
    7.4878    6.7705    6.8292 H   0  0  0  0  0  0  0  0  0  0  0  0
    9.1691    5.4958    8.1416 H   0  0  0  0  0  0  0  0  0  0  0  0
   10.9643    4.2049    7.0423 H   0  0  0  0  0  0  0  0  0  0  0  0
   11.0484    4.0607    4.5877 H   0  0  0  0  0  0  0  0  0  0  0  0
   12.3626    4.2264   -0.2926 H   0  0  0  0  0  0  0  0  0  0  0  0
   10.4424    1.7484    3.8054 H   0  0  0  0  0  0  0  0  0  0  0  0
    9.7320    0.0956    5.5091 H   0  0  0  0  0  0  0  0  0  0  0  0
    7.4473   -0.8280    5.4812 H   0  0  0  0  0  0  0  0  0  0  0  0
    5.8020   -0.1012    3.7740 H   0  0  0  0  0  0  0  0  0  0  0  0
  1  2  1  0  0  0  0
  1 42  1  0  0  0  0
  1 43  1  0  0  0  0
  1 44  1  0  0  0  0
  2  3  1  0  0  0  0
  2  4  1  0  0  0  0
  3 45  1  0  0  0  0
  3 46  1  0  0  0  0
  3 47  1  0  0  0  0
  4  5  1  0  0  0  0
  4 48  1  0  0  0  0
  4 49  1  0  0  0  0
  5  6  1  0  0  0  0
  5 50  1  0  0  0  0
  5 51  1  0  0  0  0
  6  7  1  0  0  0  0
  6 52  1  0  0  0  0
  6 53  1  0  0  0  0
  7  8  1  0  0  0  0
  7 41  1  0  0  0  0
  8  9  2  0  0  0  0
  9 10  1  0  0  0  0
  9 36  1  0  0  0  0
 10 11  2  0  0  0  0
 10 34  1  0  0  0  0
 11 12  1  0  0  0  0
 11 31  1  0  0  0  0
 12 13  2  0  0  0  0
 12 30  1  0  0  0  0
 13 14  1  0  0  0  0
 13 54  1  0  0  0  0
 14 15  1  0  0  0  0
 14 25  1  0  0  0  0
 15 16  1  0  0  0  0
 15 24  2  0  0  0  0
 16 17  2  0  0  0  0
 16 55  1  0  0  0  0
 17 18  1  0  0  0  0
 18 19  1  0  0  0  0
 18 23  2  0  0  0  0
 19 20  2  0  0  0  0
 19 56  1  0  0  0  0
 20 21  1  0  0  0  0
 20 57  1  0  0  0  0
 21 22  2  0  0  0  0
 21 58  1  0  0  0  0
 22 23  1  0  0  0  0
 22 59  1  0  0  0  0
 23 24  1  0  0  0  0
 24 60  1  0  0  0  0
 25 26  1  0  0  0  0
 25 30  2  0  0  0  0
 26 27  2  0  0  0  0
 26 61  1  0  0  0  0
 27 28  1  0  0  0  0
 27 62  1  0  0  0  0
 28 29  2  0  0  0  0
 28 63  1  0  0  0  0
 29 30  1  0  0  0  0
 29 64  1  0  0  0  0
 31 32  2  0  0  0  0
 31 33  1  0  0  0  0
 33 34  1  0  0  0  0
 33 65  1  0  0  0  0
 34 35  2  0  0  0  0
 36 37  1  0  0  0  0
 36 41  2  0  0  0  0
 37 38  2  0  0  0  0
 37 66  1  0  0  0  0
 38 39  1  0  0  0  0
 38 67  1  0  0  0  0
 39 40  2  0  0  0  0
 39 68  1  0  0  0  0
 40 41  1  0  0  0  0
 40 69  1  0  0  0  0
M  END
$$$$
