
 OpenBabel05112615523D

 31 32  0  0  0  0  0  0  0  0999 V2000
    2.9913    1.1960    0.3525 O   0  0  0  0  0  0  0  0  0  0  0  0
    2.7617    0.2099   -0.3281 C   0  0  0  0  0  0  0  0  0  0  0  0
    2.1579    0.2808   -1.5339 O   0  0  0  0  0  0  0  0  0  0  0  0
    3.1557   -1.1612    0.0949 C   0  0  0  0  0  0  0  0  0  0  0  0
    4.2206   -1.2900    0.9982 C   0  0  0  0  0  0  0  0  0  0  0  0
    4.5735   -2.5329    1.5206 C   0  0  0  0  0  0  0  0  0  0  0  0
    5.7431   -2.5932    2.2988 N   0  0  0  0  0  0  0  0  0  0  0  0
    6.6014   -3.5754    2.3434 C   0  0  0  0  0  0  0  0  0  0  0  0
    6.5972   -4.8845    1.6464 C   0  0  0  0  0  0  0  0  0  0  0  0
    6.1630   -5.0074    0.3231 C   0  0  0  0  0  0  0  0  0  0  0  0
    5.8246   -6.2682   -0.1573 C   0  0  0  0  0  0  0  0  0  0  0  0
    5.1835   -6.4131   -1.3511 O   0  0  0  0  0  0  0  0  0  0  0  0
    6.0544   -7.4098    0.6028 C   0  0  0  0  0  0  0  0  0  0  0  0
    6.6405   -7.2969    1.8634 C   0  0  0  0  0  0  0  0  0  0  0  0
    6.9055   -6.0312    2.3872 C   0  0  0  0  0  0  0  0  0  0  0  0
    7.4256   -5.9124    3.6447 O   0  0  0  0  0  0  0  0  0  0  0  0
    3.7413   -3.6229    1.2438 C   0  0  0  0  0  0  0  0  0  0  0  0
    2.7512   -3.5380    0.2603 C   0  0  0  0  0  0  0  0  0  0  0  0
    2.4821   -2.3104   -0.3352 C   0  0  0  0  0  0  0  0  0  0  0  0
    1.5630   -2.2364   -1.3500 O   0  0  0  0  0  0  0  0  0  0  0  0
    1.9395   -0.6070   -1.8903 H   0  0  0  0  0  0  0  0  0  0  0  0
    4.7843   -0.4093    1.2911 H   0  0  0  0  0  0  0  0  0  0  0  0
    7.4429   -3.4335    3.0460 H   0  0  0  0  0  0  0  0  0  0  0  0
    5.9962   -4.1200   -0.2752 H   0  0  0  0  0  0  0  0  0  0  0  0
    4.9338   -5.5318   -1.6780 H   0  0  0  0  0  0  0  0  0  0  0  0
    5.7624   -8.3832    0.2189 H   0  0  0  0  0  0  0  0  0  0  0  0
    6.8306   -8.1976    2.4400 H   0  0  0  0  0  0  0  0  0  0  0  0
    7.6376   -6.7952    3.9926 H   0  0  0  0  0  0  0  0  0  0  0  0
    3.9046   -4.5753    1.7393 H   0  0  0  0  0  0  0  0  0  0  0  0
    2.2199   -4.4418   -0.0232 H   0  0  0  0  0  0  0  0  0  0  0  0
    1.1469   -3.1124   -1.4647 H   0  0  0  0  0  0  0  0  0  0  0  0
  1  2  2  0  0  0  0
  2  3  1  0  0  0  0
  2  4  1  0  0  0  0
  3 21  1  0  0  0  0
  4  5  1  0  0  0  0
  4 19  2  0  0  0  0
  5  6  2  0  0  0  0
  5 22  1  0  0  0  0
  6  7  1  0  0  0  0
  6 17  1  0  0  0  0
  7  8  2  0  0  0  0
  8  9  1  0  0  0  0
  8 23  1  0  0  0  0
  9 10  1  0  0  0  0
  9 15  2  0  0  0  0
 10 11  2  0  0  0  0
 10 24  1  0  0  0  0
 11 12  1  0  0  0  0
 11 13  1  0  0  0  0
 12 25  1  0  0  0  0
 13 14  2  0  0  0  0
 13 26  1  0  0  0  0
 14 15  1  0  0  0  0
 14 27  1  0  0  0  0
 15 16  1  0  0  0  0
 16 28  1  0  0  0  0
 17 18  2  0  0  0  0
 17 29  1  0  0  0  0
 18 19  1  0  0  0  0
 18 30  1  0  0  0  0
 19 20  1  0  0  0  0
 20 31  1  0  0  0  0
M  END
$$$$
