
 OpenBabel05112615523D

 16 16  0  0  0  0  0  0  0  0999 V2000
    1.3304    0.1493    0.8070 O   0  0  0  0  0  0  0  0  0  0  0  0
    2.2993    0.0417    0.0634 C   0  0  0  0  0  0  0  0  0  0  0  0
    2.9931    1.2248   -0.4789 C   0  0  0  0  0  0  0  0  0  0  0  0
    2.5387    2.5018   -0.1320 C   0  0  0  0  0  0  0  0  0  0  0  0
    3.1978    3.6145   -0.6408 C   0  0  0  0  0  0  0  0  0  0  0  0
    2.8019    4.8794   -0.3234 O   0  0  0  0  0  0  0  0  0  0  0  0
    4.2897    3.4714   -1.4914 C   0  0  0  0  0  0  0  0  0  0  0  0
    4.7407    2.1967   -1.8416 C   0  0  0  0  0  0  0  0  0  0  0  0
    4.0907    1.0731   -1.3313 C   0  0  0  0  0  0  0  0  0  0  0  0
    4.5249   -0.1777   -1.6691 O   0  0  0  0  0  0  0  0  0  0  0  0
    2.6884   -0.9486   -0.2245 H   0  0  0  0  0  0  0  0  0  0  0  0
    1.6815    2.6086    0.5273 H   0  0  0  0  0  0  0  0  0  0  0  0
    2.0388    4.8285    0.2772 H   0  0  0  0  0  0  0  0  0  0  0  0
    4.7904    4.3545   -1.8797 H   0  0  0  0  0  0  0  0  0  0  0  0
    5.5945    2.1048   -2.5061 H   0  0  0  0  0  0  0  0  0  0  0  0
    5.2554   -0.1015   -2.3065 H   0  0  0  0  0  0  0  0  0  0  0  0
  1  2  2  0  0  0  0
  2  3  1  0  0  0  0
  2 11  1  0  0  0  0
  3  4  1  0  0  0  0
  3  9  2  0  0  0  0
  4  5  2  0  0  0  0
  4 12  1  0  0  0  0
  5  6  1  0  0  0  0
  5  7  1  0  0  0  0
  6 13  1  0  0  0  0
  7  8  2  0  0  0  0
  7 14  1  0  0  0  0
  8  9  1  0  0  0  0
  8 15  1  0  0  0  0
  9 10  1  0  0  0  0
 10 16  1  0  0  0  0
M  END
$$$$
