
 OpenBabel05112615523D

 48 50  0  0  0  0  0  0  0  0999 V2000
    1.6140   -1.1495    5.6316 O   0  0  0  0  0  0  0  0  0  0  0  0
    1.3642   -1.1163    4.4314 C   0  0  0  0  0  0  0  0  0  0  0  0
    0.1151   -1.0323    3.9435 O   0  0  0  0  0  0  0  0  0  0  0  0
    2.4298   -1.0316    3.3974 C   0  0  0  0  0  0  0  0  0  0  0  0
    3.6450   -0.4415    3.7697 C   0  0  0  0  0  0  0  0  0  0  0  0
    4.6525   -0.1690    2.8300 C   0  0  0  0  0  0  0  0  0  0  0  0
    5.7229    0.6450    3.2189 N   0  0  0  0  0  0  0  0  0  0  0  0
    6.4564    1.4676    2.2359 C   0  0  0  0  0  0  0  0  0  0  0  0
    5.6380    2.5147    1.5034 C   0  0  0  0  0  0  0  0  0  0  0  0
    4.3006    2.8195    1.7985 C   0  0  0  0  0  0  0  0  0  0  0  0
    3.5883    3.7092    0.9969 C   0  0  0  0  0  0  0  0  0  0  0  0
    2.2748    3.9818    1.2428 O   0  0  0  0  0  0  0  0  0  0  0  0
    4.1933    4.3445   -0.0799 C   0  0  0  0  0  0  0  0  0  0  0  0
    5.5432    4.1169   -0.3406 C   0  0  0  0  0  0  0  0  0  0  0  0
    6.2476    3.2082    0.4490 C   0  0  0  0  0  0  0  0  0  0  0  0
    7.5705    2.9669    0.1999 O   0  0  0  0  0  0  0  0  0  0  0  0
    6.6053    0.0565    4.2555 C   0  0  0  0  0  0  0  0  0  0  0  0
    6.8182    0.9954    5.4268 C   0  0  0  0  0  0  0  0  0  0  0  0
    5.8190    1.8968    5.8354 C   0  0  0  0  0  0  0  0  0  0  0  0
    5.9899    2.6664    6.9835 C   0  0  0  0  0  0  0  0  0  0  0  0
    5.0349    3.5483    7.3936 O   0  0  0  0  0  0  0  0  0  0  0  0
    7.1397    2.5544    7.7520 C   0  0  0  0  0  0  0  0  0  0  0  0
    8.1500    1.6816    7.3544 C   0  0  0  0  0  0  0  0  0  0  0  0
    7.9841    0.9110    6.2011 C   0  0  0  0  0  0  0  0  0  0  0  0
    8.9711    0.0452    5.8182 O   0  0  0  0  0  0  0  0  0  0  0  0
    4.4456   -0.6142    1.5171 C   0  0  0  0  0  0  0  0  0  0  0  0
    3.2632   -1.2633    1.1409 C   0  0  0  0  0  0  0  0  0  0  0  0
    2.2475   -1.4468    2.0748 C   0  0  0  0  0  0  0  0  0  0  0  0
    1.0552   -1.9968    1.6924 O   0  0  0  0  0  0  0  0  0  0  0  0
    0.0886   -1.1086    2.9664 H   0  0  0  0  0  0  0  0  0  0  0  0
    3.7653   -0.1081    4.7985 H   0  0  0  0  0  0  0  0  0  0  0  0
    6.9413    0.8050    1.5071 H   0  0  0  0  0  0  0  0  0  0  0  0
    7.2586    2.0094    2.7547 H   0  0  0  0  0  0  0  0  0  0  0  0
    3.8083    2.3390    2.6359 H   0  0  0  0  0  0  0  0  0  0  0  0
    2.0324    3.5751    2.0918 H   0  0  0  0  0  0  0  0  0  0  0  0
    3.6182    5.0284   -0.6976 H   0  0  0  0  0  0  0  0  0  0  0  0
    6.0304    4.6576   -1.1457 H   0  0  0  0  0  0  0  0  0  0  0  0
    7.6947    2.9621   -0.7635 H   0  0  0  0  0  0  0  0  0  0  0  0
    7.5672   -0.1894    3.7860 H   0  0  0  0  0  0  0  0  0  0  0  0
    6.2081   -0.8862    4.6517 H   0  0  0  0  0  0  0  0  0  0  0  0
    4.9057    1.9830    5.2561 H   0  0  0  0  0  0  0  0  0  0  0  0
    4.3365    3.5787    6.7188 H   0  0  0  0  0  0  0  0  0  0  0  0
    7.2460    3.1456    8.6568 H   0  0  0  0  0  0  0  0  0  0  0  0
    9.0482    1.6086    7.9595 H   0  0  0  0  0  0  0  0  0  0  0  0
    9.7066    0.1159    6.4500 H   0  0  0  0  0  0  0  0  0  0  0  0
    5.1934   -0.4372    0.7484 H   0  0  0  0  0  0  0  0  0  0  0  0
    3.1389   -1.5701    0.1058 H   0  0  0  0  0  0  0  0  0  0  0  0
    1.1920   -2.4784    0.8544 H   0  0  0  0  0  0  0  0  0  0  0  0
  1  2  2  0  0  0  0
  2  3  1  0  0  0  0
  2  4  1  0  0  0  0
  3 30  1  0  0  0  0
  4  5  1  0  0  0  0
  4 28  2  0  0  0  0
  5  6  2  0  0  0  0
  5 31  1  0  0  0  0
  6  7  1  0  0  0  0
  6 26  1  0  0  0  0
  7  8  1  0  0  0  0
  7 17  1  0  0  0  0
  8  9  1  0  0  0  0
  8 32  1  0  0  0  0
  8 33  1  0  0  0  0
  9 10  1  0  0  0  0
  9 15  2  0  0  0  0
 10 11  2  0  0  0  0
 10 34  1  0  0  0  0
 11 12  1  0  0  0  0
 11 13  1  0  0  0  0
 12 35  1  0  0  0  0
 13 14  2  0  0  0  0
 13 36  1  0  0  0  0
 14 15  1  0  0  0  0
 14 37  1  0  0  0  0
 15 16  1  0  0  0  0
 16 38  1  0  0  0  0
 17 18  1  0  0  0  0
 17 39  1  0  0  0  0
 17 40  1  0  0  0  0
 18 19  1  0  0  0  0
 18 24  2  0  0  0  0
 19 20  2  0  0  0  0
 19 41  1  0  0  0  0
 20 21  1  0  0  0  0
 20 22  1  0  0  0  0
 21 42  1  0  0  0  0
 22 23  2  0  0  0  0
 22 43  1  0  0  0  0
 23 24  1  0  0  0  0
 23 44  1  0  0  0  0
 24 25  1  0  0  0  0
 25 45  1  0  0  0  0
 26 27  2  0  0  0  0
 26 46  1  0  0  0  0
 27 28  1  0  0  0  0
 27 47  1  0  0  0  0
 28 29  1  0  0  0  0
 29 48  1  0  0  0  0
M  END
$$$$
