
 OpenBabel05112615523D

 35 37  0  0  0  0  0  0  0  0999 V2000
    1.0721   -0.2751   -0.0981 C   0  0  0  0  0  0  0  0  0  0  0  0
    2.5324   -0.2964   -0.0084 N   0  0  0  0  0  0  0  0  0  0  0  0
    3.0008   -1.3949   -0.3604 N   0  0  0  0  0  0  0  0  0  0  0  0
    4.3359   -1.2827   -0.1972 N   0  0  0  0  0  0  0  0  0  0  0  0
    5.0506   -2.4549    0.1091 C   0  0  0  0  0  0  0  0  0  0  0  0
    4.6740   -3.7042   -0.3828 C   0  0  0  0  0  0  0  0  0  0  0  0
    5.4279   -4.8438   -0.0848 C   0  0  0  0  0  0  0  0  0  0  0  0
    6.5553   -4.7834    0.7194 C   0  0  0  0  0  0  0  0  0  0  0  0
    7.2147   -5.9152    0.9747 N   0  0  0  0  0  0  0  0  0  0  0  0
    8.2874   -5.8184    1.7632 C   0  0  0  0  0  0  0  0  0  0  0  0
    8.7416   -4.7009    2.3346 N   0  0  0  0  0  0  0  0  0  0  0  0
    8.0668   -3.5627    2.0821 C   0  0  0  0  0  0  0  0  0  0  0  0
    8.4880   -2.3653    2.7310 N   0  0  0  0  0  0  0  0  0  0  0  0
    9.7181   -2.2463    3.4278 C   0  0  0  0  0  0  0  0  0  0  0  0
   10.9112   -2.6539    2.8192 C   0  0  0  0  0  0  0  0  0  0  0  0
   12.1262   -2.6194    3.5088 C   0  0  0  0  0  0  0  0  0  0  0  0
   12.1584   -2.1629    4.8214 C   0  0  0  0  0  0  0  0  0  0  0  0
   10.9814   -1.7213    5.4260 C   0  0  0  0  0  0  0  0  0  0  0  0
   11.0334   -1.1091    7.2146 Br  0  0  0  0  0  0  0  0  0  0  0  0
    9.7651   -1.7466    4.7335 C   0  0  0  0  0  0  0  0  0  0  0  0
    6.9478   -3.5387    1.2308 C   0  0  0  0  0  0  0  0  0  0  0  0
    6.2185   -2.3756    0.8734 C   0  0  0  0  0  0  0  0  0  0  0  0
    0.7232    0.7586   -0.0196 H   0  0  0  0  0  0  0  0  0  0  0  0
    0.6274   -0.8480    0.7222 H   0  0  0  0  0  0  0  0  0  0  0  0
    0.7215   -0.6811   -1.0529 H   0  0  0  0  0  0  0  0  0  0  0  0
    4.5987   -0.4701    0.3510 H   0  0  0  0  0  0  0  0  0  0  0  0
    3.7934   -3.8062   -1.0129 H   0  0  0  0  0  0  0  0  0  0  0  0
    5.1180   -5.8059   -0.4875 H   0  0  0  0  0  0  0  0  0  0  0  0
    8.8383   -6.7288    1.9630 H   0  0  0  0  0  0  0  0  0  0  0  0
    7.7100   -1.9884    3.2628 H   0  0  0  0  0  0  0  0  0  0  0  0
   10.8971   -3.0267    1.7977 H   0  0  0  0  0  0  0  0  0  0  0  0
   13.0324   -2.9648    3.0224 H   0  0  0  0  0  0  0  0  0  0  0  0
   13.1010   -2.1613    5.3649 H   0  0  0  0  0  0  0  0  0  0  0  0
    8.8604   -1.4124    5.2310 H   0  0  0  0  0  0  0  0  0  0  0  0
    6.5702   -1.4021    1.2080 H   0  0  0  0  0  0  0  0  0  0  0  0
  1  2  1  0  0  0  0
  1 23  1  0  0  0  0
  1 24  1  0  0  0  0
  1 25  1  0  0  0  0
  2  3  2  0  0  0  0
  3  4  1  0  0  0  0
  4  5  1  0  0  0  0
  4 26  1  0  0  0  0
  5  6  1  0  0  0  0
  5 22  2  0  0  0  0
  6  7  2  0  0  0  0
  6 27  1  0  0  0  0
  7  8  1  0  0  0  0
  7 28  1  0  0  0  0
  8  9  1  0  0  0  0
  8 21  2  0  0  0  0
  9 10  2  0  0  0  0
 10 11  1  0  0  0  0
 10 29  1  0  0  0  0
 11 12  2  0  0  0  0
 12 13  1  0  0  0  0
 12 21  1  0  0  0  0
 13 14  1  0  0  0  0
 13 30  1  0  0  0  0
 14 15  1  0  0  0  0
 14 20  2  0  0  0  0
 15 16  2  0  0  0  0
 15 31  1  0  0  0  0
 16 17  1  0  0  0  0
 16 32  1  0  0  0  0
 17 18  2  0  0  0  0
 17 33  1  0  0  0  0
 18 19  1  0  0  0  0
 18 20  1  0  0  0  0
 20 34  1  0  0  0  0
 21 22  1  0  0  0  0
 22 35  1  0  0  0  0
M  END
$$$$
