
 OpenBabel05112615533D

 70 76  0  0  0  0  0  0  0  0999 V2000
    4.1416   -3.3728   -5.6061 C   0  0  0  0  0  0  0  0  0  0  0  0
    4.5820   -3.6593   -4.2393 N   0  0  0  0  0  0  0  0  0  0  0  0
    3.6531   -4.6070   -3.6154 C   0  0  0  0  0  0  0  0  0  0  0  0
    5.9516   -4.2045   -4.2028 C   0  0  0  0  0  0  0  0  0  0  0  0
    7.0215   -3.2164   -4.6888 C   0  0  0  0  0  0  0  0  0  0  0  0
    7.0372   -1.9012   -3.9061 C   0  0  0  0  0  0  0  0  0  0  0  0
    7.3588   -2.0833   -2.5030 N   0  0  0  0  0  0  0  0  0  0  0  0
    8.5483   -2.6359   -2.1873 N   0  0  0  0  0  0  0  0  0  0  0  0
    8.5260   -2.7208   -0.8526 C   0  0  0  0  0  0  0  0  0  0  0  0
    9.5868   -3.2900   -0.0992 C   0  0  0  0  0  0  0  0  0  0  0  0
    9.8268   -4.5635    0.2246 C   0  0  0  0  0  0  0  0  0  0  0  0
    9.0846   -5.7437   -0.0563 C   0  0  0  0  0  0  0  0  0  0  0  0
    7.7135   -5.8161   -0.1135 C   0  0  0  0  0  0  0  0  0  0  0  0
    7.3379   -7.1470   -0.1192 N   0  0  0  0  0  0  0  0  0  0  0  0
    5.9998   -7.5674    0.1539 C   0  0  0  0  0  0  0  0  0  0  0  0
    4.9524   -6.7269   -0.2787 C   0  0  0  0  0  0  0  0  0  0  0  0
    3.6334   -7.1400   -0.1754 C   0  0  0  0  0  0  0  0  0  0  0  0
    3.3721   -8.3757    0.3786 C   0  0  0  0  0  0  0  0  0  0  0  0
    4.3239   -8.9465    1.2158 C   0  0  0  0  0  0  0  0  0  0  0  0
    3.8896   -9.6873    2.3259 C   0  0  0  0  0  0  0  0  0  0  0  0
    4.8057  -10.1667    3.2547 C   0  0  0  0  0  0  0  0  0  0  0  0
    6.1635  -10.0553    2.9871 C   0  0  0  0  0  0  0  0  0  0  0  0
    6.6042   -9.3346    1.8713 C   0  0  0  0  0  0  0  0  0  0  0  0
    5.6941   -8.6444    1.0339 C   0  0  0  0  0  0  0  0  0  0  0  0
    8.4704   -7.9043   -0.4360 C   0  0  0  0  0  0  0  0  0  0  0  0
    8.6423   -9.2540   -0.8141 C   0  0  0  0  0  0  0  0  0  0  0  0
    9.9440   -9.7256   -1.0616 C   0  0  0  0  0  0  0  0  0  0  0  0
   11.0458   -8.8934   -0.9391 C   0  0  0  0  0  0  0  0  0  0  0  0
   10.8706   -7.5543   -0.5835 C   0  0  0  0  0  0  0  0  0  0  0  0
    9.5744   -7.0416   -0.3522 C   0  0  0  0  0  0  0  0  0  0  0  0
   11.0444   -4.5534    1.0797 C   0  0  0  0  0  0  0  0  0  0  0  0
   11.5053   -5.4897    1.7052 O   0  0  0  0  0  0  0  0  0  0  0  0
   11.5035   -3.2922    1.0892 N   0  0  0  0  0  0  0  0  0  0  0  0
   10.6499   -2.4378    0.4870 C   0  0  0  0  0  0  0  0  0  0  0  0
   10.7036   -1.2440    0.5212 O   0  0  0  0  0  0  0  0  0  0  0  0
    7.3073   -2.2215   -0.3127 C   0  0  0  0  0  0  0  0  0  0  0  0
    6.7439   -2.1072    0.9749 C   0  0  0  0  0  0  0  0  0  0  0  0
    5.4727   -1.5399    1.1158 C   0  0  0  0  0  0  0  0  0  0  0  0
    4.7651   -1.0990    0.0003 C   0  0  0  0  0  0  0  0  0  0  0  0
    5.2929   -1.2285   -1.2887 C   0  0  0  0  0  0  0  0  0  0  0  0
    6.5699   -1.7966   -1.4156 C   0  0  0  0  0  0  0  0  0  0  0  0
    3.1148   -2.9902   -5.6051 H   0  0  0  0  0  0  0  0  0  0  0  0
    4.1810   -4.2597   -6.2479 H   0  0  0  0  0  0  0  0  0  0  0  0
    4.7495   -2.5847   -6.0607 H   0  0  0  0  0  0  0  0  0  0  0  0
    2.6282   -4.2200   -3.6413 H   0  0  0  0  0  0  0  0  0  0  0  0
    3.9024   -4.7480   -2.5594 H   0  0  0  0  0  0  0  0  0  0  0  0
    3.6640   -5.5853   -4.1101 H   0  0  0  0  0  0  0  0  0  0  0  0
    6.0172   -5.1222   -4.8023 H   0  0  0  0  0  0  0  0  0  0  0  0
    6.1971   -4.4948   -3.1728 H   0  0  0  0  0  0  0  0  0  0  0  0
    6.8825   -2.9979   -5.7536 H   0  0  0  0  0  0  0  0  0  0  0  0
    8.0011   -3.7057   -4.6156 H   0  0  0  0  0  0  0  0  0  0  0  0
    6.0795   -1.3786   -3.9876 H   0  0  0  0  0  0  0  0  0  0  0  0
    7.8025   -1.2312   -4.3152 H   0  0  0  0  0  0  0  0  0  0  0  0
    6.9689   -5.0436    0.0005 H   0  0  0  0  0  0  0  0  0  0  0  0
    5.1334   -5.7705   -0.7604 H   0  0  0  0  0  0  0  0  0  0  0  0
    2.8224   -6.5172   -0.5426 H   0  0  0  0  0  0  0  0  0  0  0  0
    2.4152   -8.8588    0.2042 H   0  0  0  0  0  0  0  0  0  0  0  0
    2.8260   -9.7639    2.5519 H   0  0  0  0  0  0  0  0  0  0  0  0
    4.4629  -10.6029    4.1896 H   0  0  0  0  0  0  0  0  0  0  0  0
    6.8891  -10.4664    3.6830 H   0  0  0  0  0  0  0  0  0  0  0  0
    7.6775   -9.2339    1.7427 H   0  0  0  0  0  0  0  0  0  0  0  0
    7.7963   -9.9282   -0.9250 H   0  0  0  0  0  0  0  0  0  0  0  0
   10.0974  -10.7616   -1.3567 H   0  0  0  0  0  0  0  0  0  0  0  0
   12.0477   -9.2619   -1.1327 H   0  0  0  0  0  0  0  0  0  0  0  0
   11.7384   -6.9046   -0.5120 H   0  0  0  0  0  0  0  0  0  0  0  0
   12.2843   -2.9411    1.6338 H   0  0  0  0  0  0  0  0  0  0  0  0
    7.2821   -2.4558    1.8515 H   0  0  0  0  0  0  0  0  0  0  0  0
    5.0363   -1.4393    2.1067 H   0  0  0  0  0  0  0  0  0  0  0  0
    3.7835   -0.6484    0.1324 H   0  0  0  0  0  0  0  0  0  0  0  0
    4.7246   -0.8986   -2.1525 H   0  0  0  0  0  0  0  0  0  0  0  0
  1  2  1  0  0  0  0
  1 42  1  0  0  0  0
  1 43  1  0  0  0  0
  1 44  1  0  0  0  0
  2  3  1  0  0  0  0
  2  4  1  0  0  0  0
  3 45  1  0  0  0  0
  3 46  1  0  0  0  0
  3 47  1  0  0  0  0
  4  5  1  0  0  0  0
  4 48  1  0  0  0  0
  4 49  1  0  0  0  0
  5  6  1  0  0  0  0
  5 50  1  0  0  0  0
  5 51  1  0  0  0  0
  6  7  1  0  0  0  0
  6 52  1  0  0  0  0
  6 53  1  0  0  0  0
  7  8  1  0  0  0  0
  7 41  1  0  0  0  0
  8  9  2  0  0  0  0
  9 10  1  0  0  0  0
  9 36  1  0  0  0  0
 10 11  2  0  0  0  0
 10 34  1  0  0  0  0
 11 12  1  0  0  0  0
 11 31  1  0  0  0  0
 12 13  2  0  0  0  0
 12 30  1  0  0  0  0
 13 14  1  0  0  0  0
 13 54  1  0  0  0  0
 14 15  1  0  0  0  0
 14 25  1  0  0  0  0
 15 16  1  0  0  0  0
 15 24  2  0  0  0  0
 16 17  2  0  0  0  0
 16 55  1  0  0  0  0
 17 18  1  0  0  0  0
 17 56  1  0  0  0  0
 18 19  2  0  0  0  0
 18 57  1  0  0  0  0
 19 20  1  0  0  0  0
 19 24  1  0  0  0  0
 20 21  2  0  0  0  0
 20 58  1  0  0  0  0
 21 22  1  0  0  0  0
 21 59  1  0  0  0  0
 22 23  2  0  0  0  0
 22 60  1  0  0  0  0
 23 24  1  0  0  0  0
 23 61  1  0  0  0  0
 25 26  1  0  0  0  0
 25 30  2  0  0  0  0
 26 27  2  0  0  0  0
 26 62  1  0  0  0  0
 27 28  1  0  0  0  0
 27 63  1  0  0  0  0
 28 29  2  0  0  0  0
 28 64  1  0  0  0  0
 29 30  1  0  0  0  0
 29 65  1  0  0  0  0
 31 32  2  0  0  0  0
 31 33  1  0  0  0  0
 33 34  1  0  0  0  0
 33 66  1  0  0  0  0
 34 35  2  0  0  0  0
 36 37  1  0  0  0  0
 36 41  2  0  0  0  0
 37 38  2  0  0  0  0
 37 67  1  0  0  0  0
 38 39  1  0  0  0  0
 38 68  1  0  0  0  0
 39 40  2  0  0  0  0
 39 69  1  0  0  0  0
 40 41  1  0  0  0  0
 40 70  1  0  0  0  0
M  END
$$$$
