
 OpenBabel05112615533D

 54 57  0  0  0  0  0  0  0  0999 V2000
    1.1987   -1.8565   -0.8839 C   0  0  0  0  0  0  0  0  0  0  0  0
    2.2256   -0.8781   -0.9796 O   0  0  0  0  0  0  0  0  0  0  0  0
    2.9195   -0.5456    0.1575 C   0  0  0  0  0  0  0  0  0  0  0  0
    2.6651   -1.1231    1.4054 C   0  0  0  0  0  0  0  0  0  0  0  0
    3.4447   -0.7466    2.4843 C   0  0  0  0  0  0  0  0  0  0  0  0
    4.4480    0.1434    2.4035 N   0  0  0  0  0  0  0  0  0  0  0  0
    4.6775    0.6858    1.1807 C   0  0  0  0  0  0  0  0  0  0  0  0
    3.9492    0.4105    0.0194 C   0  0  0  0  0  0  0  0  0  0  0  0
    4.3006    1.0877   -1.2480 C   0  0  0  0  0  0  0  0  0  0  0  0
    3.3697    1.4379   -2.2245 C   0  0  0  0  0  0  0  0  0  0  0  0
    3.8156    2.0019   -3.4198 C   0  0  0  0  0  0  0  0  0  0  0  0
    2.8754    2.3124   -4.5309 C   0  0  0  0  0  0  0  0  0  0  0  0
    3.3308    2.3646   -5.6720 O   0  0  0  0  0  0  0  0  0  0  0  0
    1.5643    2.5363   -4.1746 N   0  0  0  0  0  0  0  0  0  0  0  0
    0.7042    2.7327   -5.1229 C   0  0  0  0  0  0  0  0  0  0  0  0
    0.9140    2.7290   -6.4979 N   0  0  0  0  0  0  0  0  0  0  0  0
   -0.2517    3.0939   -7.1595 C   0  0  0  0  0  0  0  0  0  0  0  0
   -0.5019    3.2267   -8.5052 C   0  0  0  0  0  0  0  0  0  0  0  0
   -1.8047    3.5529   -8.8840 C   0  0  0  0  0  0  0  0  0  0  0  0
   -2.8175    3.7258   -7.9178 C   0  0  0  0  0  0  0  0  0  0  0  0
   -2.5456    3.5731   -6.5543 C   0  0  0  0  0  0  0  0  0  0  0  0
   -1.2564    3.2514   -6.1859 C   0  0  0  0  0  0  0  0  0  0  0  0
   -0.6643    3.0089   -4.9426 N   0  0  0  0  0  0  0  0  0  0  0  0
   -1.3553    3.1484   -3.6727 C   0  0  0  0  0  0  0  0  0  0  0  0
   -1.9266    1.8006   -3.1599 C   0  0  0  0  0  0  0  0  0  0  0  0
   -0.8364    0.7571   -2.9094 C   0  0  0  0  0  0  0  0  0  0  0  0
   -2.7168    2.0453   -1.8702 C   0  0  0  0  0  0  0  0  0  0  0  0
   -2.8545    1.2498   -4.1054 O   0  0  0  0  0  0  0  0  0  0  0  0
    5.1737    2.2473   -3.6023 C   0  0  0  0  0  0  0  0  0  0  0  0
    6.0281    1.9271   -2.5704 C   0  0  0  0  0  0  0  0  0  0  0  0
    5.6229    1.3592   -1.4132 N   0  0  0  0  0  0  0  0  0  0  0  0
    0.7288   -1.9413   -1.8685 H   0  0  0  0  0  0  0  0  0  0  0  0
    0.4235   -1.5505   -0.1744 H   0  0  0  0  0  0  0  0  0  0  0  0
    1.6148   -2.8352   -0.6251 H   0  0  0  0  0  0  0  0  0  0  0  0
    1.8893   -1.8606    1.5655 H   0  0  0  0  0  0  0  0  0  0  0  0
    3.2782   -1.1711    3.4703 H   0  0  0  0  0  0  0  0  0  0  0  0
    5.5087    1.3889    1.1612 H   0  0  0  0  0  0  0  0  0  0  0  0
    2.3140    1.2513   -2.0752 H   0  0  0  0  0  0  0  0  0  0  0  0
    1.8394    2.6654   -6.8954 H   0  0  0  0  0  0  0  0  0  0  0  0
    0.2798    3.0825   -9.2428 H   0  0  0  0  0  0  0  0  0  0  0  0
   -2.0435    3.6703   -9.9397 H   0  0  0  0  0  0  0  0  0  0  0  0
   -3.8236    3.9757   -8.2442 H   0  0  0  0  0  0  0  0  0  0  0  0
   -3.3375    3.6959   -5.8246 H   0  0  0  0  0  0  0  0  0  0  0  0
   -2.1710    3.8766   -3.7720 H   0  0  0  0  0  0  0  0  0  0  0  0
   -0.6698    3.5686   -2.9249 H   0  0  0  0  0  0  0  0  0  0  0  0
   -0.0532    1.1477   -2.2541 H   0  0  0  0  0  0  0  0  0  0  0  0
   -0.3839    0.4198   -3.8483 H   0  0  0  0  0  0  0  0  0  0  0  0
   -1.2544   -0.1420   -2.4436 H   0  0  0  0  0  0  0  0  0  0  0  0
   -2.1192    2.5767   -1.1226 H   0  0  0  0  0  0  0  0  0  0  0  0
   -3.0551    1.0999   -1.4309 H   0  0  0  0  0  0  0  0  0  0  0  0
   -3.6223    2.6291   -2.0738 H   0  0  0  0  0  0  0  0  0  0  0  0
   -2.3565    1.1141   -4.9340 H   0  0  0  0  0  0  0  0  0  0  0  0
    5.5532    2.6821   -4.5209 H   0  0  0  0  0  0  0  0  0  0  0  0
    7.0954    2.1160   -2.6476 H   0  0  0  0  0  0  0  0  0  0  0  0
  1  2  1  0  0  0  0
  1 32  1  0  0  0  0
  1 33  1  0  0  0  0
  1 34  1  0  0  0  0
  2  3  1  0  0  0  0
  3  4  1  0  0  0  0
  3  8  2  0  0  0  0
  4  5  2  0  0  0  0
  4 35  1  0  0  0  0
  5  6  1  0  0  0  0
  5 36  1  0  0  0  0
  6  7  2  0  0  0  0
  7  8  1  0  0  0  0
  7 37  1  0  0  0  0
  8  9  1  0  0  0  0
  9 10  1  0  0  0  0
  9 31  2  0  0  0  0
 10 11  2  0  0  0  0
 10 38  1  0  0  0  0
 11 12  1  0  0  0  0
 11 29  1  0  0  0  0
 12 13  2  0  0  0  0
 12 14  1  0  0  0  0
 14 15  2  0  0  0  0
 15 16  1  0  0  0  0
 15 23  1  0  0  0  0
 16 17  1  0  0  0  0
 16 39  1  0  0  0  0
 17 18  1  0  0  0  0
 17 22  2  0  0  0  0
 18 19  2  0  0  0  0
 18 40  1  0  0  0  0
 19 20  1  0  0  0  0
 19 41  1  0  0  0  0
 20 21  2  0  0  0  0
 20 42  1  0  0  0  0
 21 22  1  0  0  0  0
 21 43  1  0  0  0  0
 22 23  1  0  0  0  0
 23 24  1  0  0  0  0
 24 25  1  0  0  0  0
 24 44  1  0  0  0  0
 24 45  1  0  0  0  0
 25 26  1  0  0  0  0
 25 27  1  0  0  0  0
 25 28  1  0  0  0  0
 26 46  1  0  0  0  0
 26 47  1  0  0  0  0
 26 48  1  0  0  0  0
 27 49  1  0  0  0  0
 27 50  1  0  0  0  0
 27 51  1  0  0  0  0
 28 52  1  0  0  0  0
 29 30  2  0  0  0  0
 29 53  1  0  0  0  0
 30 31  1  0  0  0  0
 30 54  1  0  0  0  0
M  END
$$$$
