
 OpenBabel05112615523D

 44 46  0  0  0  0  0  0  0  0999 V2000
    4.6158    4.3808   -0.8367 C   0  0  0  0  0  0  0  0  0  0  0  0
    4.1972    3.2771    0.0868 C   0  0  0  0  0  0  0  0  0  0  0  0
    3.1706    3.2921    0.7520 O   0  0  0  0  0  0  0  0  0  0  0  0
    5.1027    2.2669    0.0369 O   0  0  0  0  0  0  0  0  0  0  0  0
    4.8017    1.1546    0.8781 C   0  0  0  0  0  0  0  0  0  0  0  0
    5.2950    1.4097    2.2167 N   0  0  0  0  0  0  0  0  0  0  0  0
    4.3655    1.4463    3.3319 C   0  0  0  0  0  0  0  0  0  0  0  0
    6.6508    1.4494    2.3911 N   0  0  0  0  0  0  0  0  0  0  0  0
    6.9772    1.6986    3.5677 N   0  0  0  0  0  0  0  0  0  0  0  0
    8.3691    1.6887    3.7674 C   0  0  0  0  0  0  0  0  0  0  0  0
    9.3009    2.1132    2.8169 C   0  0  0  0  0  0  0  0  0  0  0  0
   10.6679    2.1160    3.1161 C   0  0  0  0  0  0  0  0  0  0  0  0
   11.1488    1.7046    4.3508 C   0  0  0  0  0  0  0  0  0  0  0  0
   12.4662    1.7541    4.5633 N   0  0  0  0  0  0  0  0  0  0  0  0
   12.8926    1.3655    5.7683 C   0  0  0  0  0  0  0  0  0  0  0  0
   12.1262    0.9211    6.7623 N   0  0  0  0  0  0  0  0  0  0  0  0
   10.7975    0.8562    6.5383 C   0  0  0  0  0  0  0  0  0  0  0  0
    9.9617    0.3419    7.5711 N   0  0  0  0  0  0  0  0  0  0  0  0
   10.4025    0.1327    8.9001 C   0  0  0  0  0  0  0  0  0  0  0  0
   11.0786    1.1476    9.5949 C   0  0  0  0  0  0  0  0  0  0  0  0
   11.5859    0.9320   10.8764 C   0  0  0  0  0  0  0  0  0  0  0  0
   11.4128   -0.3057   11.4888 C   0  0  0  0  0  0  0  0  0  0  0  0
   10.7131   -1.3098   10.8212 C   0  0  0  0  0  0  0  0  0  0  0  0
   10.4857   -2.9935   11.6543 Br  0  0  0  0  0  0  0  0  0  0  0  0
   10.1971   -1.0955    9.5399 C   0  0  0  0  0  0  0  0  0  0  0  0
   10.2331    1.2656    5.3165 C   0  0  0  0  0  0  0  0  0  0  0  0
    8.8465    1.2793    5.0162 C   0  0  0  0  0  0  0  0  0  0  0  0
    3.9272    5.2240   -0.7304 H   0  0  0  0  0  0  0  0  0  0  0  0
    4.5820    4.0278   -1.8705 H   0  0  0  0  0  0  0  0  0  0  0  0
    5.6215    4.7229   -0.5797 H   0  0  0  0  0  0  0  0  0  0  0  0
    5.3241    0.2774    0.4816 H   0  0  0  0  0  0  0  0  0  0  0  0
    3.7312    0.9176    0.8794 H   0  0  0  0  0  0  0  0  0  0  0  0
    3.3333    1.3781    2.9785 H   0  0  0  0  0  0  0  0  0  0  0  0
    4.4861    2.3882    3.8743 H   0  0  0  0  0  0  0  0  0  0  0  0
    4.5673    0.5970    3.9916 H   0  0  0  0  0  0  0  0  0  0  0  0
    8.9722    2.4582    1.8397 H   0  0  0  0  0  0  0  0  0  0  0  0
   11.3761    2.4575    2.3637 H   0  0  0  0  0  0  0  0  0  0  0  0
   13.9578    1.4155    5.9567 H   0  0  0  0  0  0  0  0  0  0  0  0
    9.4443   -0.4530    7.2090 H   0  0  0  0  0  0  0  0  0  0  0  0
   11.2318    2.1148    9.1208 H   0  0  0  0  0  0  0  0  0  0  0  0
   12.1280    1.7258   11.3829 H   0  0  0  0  0  0  0  0  0  0  0  0
   11.8297   -0.4773   12.4773 H   0  0  0  0  0  0  0  0  0  0  0  0
    9.6705   -1.8981    9.0326 H   0  0  0  0  0  0  0  0  0  0  0  0
    8.1210    0.9872    5.7726 H   0  0  0  0  0  0  0  0  0  0  0  0
  1  2  1  0  0  0  0
  1 28  1  0  0  0  0
  1 29  1  0  0  0  0
  1 30  1  0  0  0  0
  2  3  2  0  0  0  0
  2  4  1  0  0  0  0
  4  5  1  0  0  0  0
  5  6  1  0  0  0  0
  5 31  1  0  0  0  0
  5 32  1  0  0  0  0
  6  7  1  0  0  0  0
  6  8  1  0  0  0  0
  7 33  1  0  0  0  0
  7 34  1  0  0  0  0
  7 35  1  0  0  0  0
  8  9  2  0  0  0  0
  9 10  1  0  0  0  0
 10 11  1  0  0  0  0
 10 27  2  0  0  0  0
 11 12  2  0  0  0  0
 11 36  1  0  0  0  0
 12 13  1  0  0  0  0
 12 37  1  0  0  0  0
 13 14  1  0  0  0  0
 13 26  2  0  0  0  0
 14 15  2  0  0  0  0
 15 16  1  0  0  0  0
 15 38  1  0  0  0  0
 16 17  2  0  0  0  0
 17 18  1  0  0  0  0
 17 26  1  0  0  0  0
 18 19  1  0  0  0  0
 18 39  1  0  0  0  0
 19 20  1  0  0  0  0
 19 25  2  0  0  0  0
 20 21  2  0  0  0  0
 20 40  1  0  0  0  0
 21 22  1  0  0  0  0
 21 41  1  0  0  0  0
 22 23  2  0  0  0  0
 22 42  1  0  0  0  0
 23 24  1  0  0  0  0
 23 25  1  0  0  0  0
 25 43  1  0  0  0  0
 26 27  1  0  0  0  0
 27 44  1  0  0  0  0
M  END
$$$$
