
 OpenBabel05112615533D

 67 73  0  0  0  0  0  0  0  0999 V2000
    4.4205   -4.3415   -1.2844 C   0  0  0  0  0  0  0  0  0  0  0  0
    4.7663   -4.0378    0.1059 N   0  0  0  0  0  0  0  0  0  0  0  0
    3.8217   -4.7103    1.0050 C   0  0  0  0  0  0  0  0  0  0  0  0
    6.1434   -4.4482    0.4370 C   0  0  0  0  0  0  0  0  0  0  0  0
    7.2203   -3.6834   -0.3437 C   0  0  0  0  0  0  0  0  0  0  0  0
    7.1439   -2.1659   -0.1632 C   0  0  0  0  0  0  0  0  0  0  0  0
    7.4239   -1.7376    1.1952 N   0  0  0  0  0  0  0  0  0  0  0  0
    8.6226   -2.0543    1.7298 N   0  0  0  0  0  0  0  0  0  0  0  0
    8.5785   -1.5331    2.9595 C   0  0  0  0  0  0  0  0  0  0  0  0
    9.6529   -1.6141    3.8749 C   0  0  0  0  0  0  0  0  0  0  0  0
    9.9461   -2.5735    4.7624 C   0  0  0  0  0  0  0  0  0  0  0  0
    9.2786   -3.7918    5.0397 C   0  0  0  0  0  0  0  0  0  0  0  0
    8.2830   -3.9515    5.9782 C   0  0  0  0  0  0  0  0  0  0  0  0
    7.9425   -5.2914    6.0473 N   0  0  0  0  0  0  0  0  0  0  0  0
    7.0063   -5.8709    6.9773 C   0  0  0  0  0  0  0  0  0  0  0  0
    7.1787   -7.1385    7.4946 C   0  0  0  0  0  0  0  0  0  0  0  0
    5.9131   -7.6180    8.5187 S   0  0  0  0  0  0  0  0  0  0  0  0
    5.0971   -6.1183    8.3208 C   0  0  0  0  0  0  0  0  0  0  0  0
    3.8566   -5.7776    8.8983 C   0  0  0  0  0  0  0  0  0  0  0  0
    3.3127   -4.5199    8.6502 C   0  0  0  0  0  0  0  0  0  0  0  0
    3.9838   -3.6192    7.8409 C   0  0  0  0  0  0  0  0  0  0  0  0
    5.2065   -3.9681    7.2538 C   0  0  0  0  0  0  0  0  0  0  0  0
    5.8060   -5.2359    7.4909 C   0  0  0  0  0  0  0  0  0  0  0  0
    8.6898   -5.9809    5.0863 C   0  0  0  0  0  0  0  0  0  0  0  0
    8.6731   -7.3321    4.6811 C   0  0  0  0  0  0  0  0  0  0  0  0
    9.5545   -7.7548    3.6834 C   0  0  0  0  0  0  0  0  0  0  0  0
   10.4132   -6.8551    3.0690 C   0  0  0  0  0  0  0  0  0  0  0  0
   10.4035   -5.5062    3.4359 C   0  0  0  0  0  0  0  0  0  0  0  0
    9.5313   -5.0563    4.4522 C   0  0  0  0  0  0  0  0  0  0  0  0
   11.1851   -2.1542    5.4531 C   0  0  0  0  0  0  0  0  0  0  0  0
   11.7543   -2.7497    6.3470 O   0  0  0  0  0  0  0  0  0  0  0  0
   11.5629   -0.9715    4.9221 N   0  0  0  0  0  0  0  0  0  0  0  0
   10.6897   -0.5685    3.9767 C   0  0  0  0  0  0  0  0  0  0  0  0
   10.7477    0.4717    3.3482 O   0  0  0  0  0  0  0  0  0  0  0  0
    7.3371   -0.8902    3.2193 C   0  0  0  0  0  0  0  0  0  0  0  0
    6.7598   -0.2132    4.3130 C   0  0  0  0  0  0  0  0  0  0  0  0
    5.4775    0.3279    4.1785 C   0  0  0  0  0  0  0  0  0  0  0  0
    4.7786    0.2073    2.9794 C   0  0  0  0  0  0  0  0  0  0  0  0
    5.3288   -0.4698    1.8852 C   0  0  0  0  0  0  0  0  0  0  0  0
    6.6114   -1.0168    2.0363 C   0  0  0  0  0  0  0  0  0  0  0  0
    3.3843   -4.0530   -1.4936 H   0  0  0  0  0  0  0  0  0  0  0  0
    4.5382   -5.4053   -1.5184 H   0  0  0  0  0  0  0  0  0  0  0  0
    5.0342   -3.7607   -1.9800 H   0  0  0  0  0  0  0  0  0  0  0  0
    2.7909   -4.4234    0.7676 H   0  0  0  0  0  0  0  0  0  0  0  0
    3.9976   -4.4098    2.0438 H   0  0  0  0  0  0  0  0  0  0  0  0
    3.8965   -5.8023    0.9413 H   0  0  0  0  0  0  0  0  0  0  0  0
    6.2764   -5.5240    0.2605 H   0  0  0  0  0  0  0  0  0  0  0  0
    6.3209   -4.2887    1.5088 H   0  0  0  0  0  0  0  0  0  0  0  0
    7.1533   -3.9196   -1.4116 H   0  0  0  0  0  0  0  0  0  0  0  0
    8.2037   -4.0506   -0.0235 H   0  0  0  0  0  0  0  0  0  0  0  0
    6.1685   -1.7755   -0.4665 H   0  0  0  0  0  0  0  0  0  0  0  0
    7.8945   -1.6800   -0.7979 H   0  0  0  0  0  0  0  0  0  0  0  0
    7.8591   -3.2382    6.6688 H   0  0  0  0  0  0  0  0  0  0  0  0
    8.0080   -7.8165    7.3483 H   0  0  0  0  0  0  0  0  0  0  0  0
    3.3255   -6.4919    9.5220 H   0  0  0  0  0  0  0  0  0  0  0  0
    2.3536   -4.2530    9.0869 H   0  0  0  0  0  0  0  0  0  0  0  0
    3.5518   -2.6410    7.6440 H   0  0  0  0  0  0  0  0  0  0  0  0
    5.6721   -3.2460    6.5894 H   0  0  0  0  0  0  0  0  0  0  0  0
    7.9853   -8.0517    5.1136 H   0  0  0  0  0  0  0  0  0  0  0  0
    9.5595   -8.7996    3.3828 H   0  0  0  0  0  0  0  0  0  0  0  0
   11.0883   -7.1965    2.2892 H   0  0  0  0  0  0  0  0  0  0  0  0
   11.0621   -4.8076    2.9279 H   0  0  0  0  0  0  0  0  0  0  0  0
   12.3713   -0.4474    5.2109 H   0  0  0  0  0  0  0  0  0  0  0  0
    7.3002   -0.1039    5.2482 H   0  0  0  0  0  0  0  0  0  0  0  0
    5.0264    0.8546    5.0161 H   0  0  0  0  0  0  0  0  0  0  0  0
    3.7871    0.6466    2.8908 H   0  0  0  0  0  0  0  0  0  0  0  0
    4.7723   -0.5626    0.9579 H   0  0  0  0  0  0  0  0  0  0  0  0
  1  2  1  0  0  0  0
  1 41  1  0  0  0  0
  1 42  1  0  0  0  0
  1 43  1  0  0  0  0
  2  3  1  0  0  0  0
  2  4  1  0  0  0  0
  3 44  1  0  0  0  0
  3 45  1  0  0  0  0
  3 46  1  0  0  0  0
  4  5  1  0  0  0  0
  4 47  1  0  0  0  0
  4 48  1  0  0  0  0
  5  6  1  0  0  0  0
  5 49  1  0  0  0  0
  5 50  1  0  0  0  0
  6  7  1  0  0  0  0
  6 51  1  0  0  0  0
  6 52  1  0  0  0  0
  7  8  1  0  0  0  0
  7 40  1  0  0  0  0
  8  9  2  0  0  0  0
  9 10  1  0  0  0  0
  9 35  1  0  0  0  0
 10 11  2  0  0  0  0
 10 33  1  0  0  0  0
 11 12  1  0  0  0  0
 11 30  1  0  0  0  0
 12 13  2  0  0  0  0
 12 29  1  0  0  0  0
 13 14  1  0  0  0  0
 13 53  1  0  0  0  0
 14 15  1  0  0  0  0
 14 24  1  0  0  0  0
 15 16  2  0  0  0  0
 15 23  1  0  0  0  0
 16 17  1  0  0  0  0
 16 54  1  0  0  0  0
 17 18  1  0  0  0  0
 18 19  1  0  0  0  0
 18 23  2  0  0  0  0
 19 20  2  0  0  0  0
 19 55  1  0  0  0  0
 20 21  1  0  0  0  0
 20 56  1  0  0  0  0
 21 22  2  0  0  0  0
 21 57  1  0  0  0  0
 22 23  1  0  0  0  0
 22 58  1  0  0  0  0
 24 25  1  0  0  0  0
 24 29  2  0  0  0  0
 25 26  2  0  0  0  0
 25 59  1  0  0  0  0
 26 27  1  0  0  0  0
 26 60  1  0  0  0  0
 27 28  2  0  0  0  0
 27 61  1  0  0  0  0
 28 29  1  0  0  0  0
 28 62  1  0  0  0  0
 30 31  2  0  0  0  0
 30 32  1  0  0  0  0
 32 33  1  0  0  0  0
 32 63  1  0  0  0  0
 33 34  2  0  0  0  0
 35 36  1  0  0  0  0
 35 40  2  0  0  0  0
 36 37  2  0  0  0  0
 36 64  1  0  0  0  0
 37 38  1  0  0  0  0
 37 65  1  0  0  0  0
 38 39  2  0  0  0  0
 38 66  1  0  0  0  0
 39 40  1  0  0  0  0
 39 67  1  0  0  0  0
M  END
$$$$
