
 OpenBabel05112615533D

 38 40  0  0  0  0  0  0  0  0999 V2000
    1.0928    0.1999   -0.0974 C   0  0  0  0  0  0  0  0  0  0  0  0
    2.5501    0.1082   -0.2037 N   0  0  0  0  0  0  0  0  0  0  0  0
    3.0350    1.1337   -0.7156 N   0  0  0  0  0  0  0  0  0  0  0  0
    4.3573    0.8903   -0.8523 N   0  0  0  0  0  0  0  0  0  0  0  0
    5.0065    1.5248   -1.9301 C   0  0  0  0  0  0  0  0  0  0  0  0
    4.6133    2.7826   -2.3894 C   0  0  0  0  0  0  0  0  0  0  0  0
    5.2748    3.3888   -3.4629 C   0  0  0  0  0  0  0  0  0  0  0  0
    6.3294    2.7716   -4.1138 C   0  0  0  0  0  0  0  0  0  0  0  0
    6.8797    3.3940   -5.1601 N   0  0  0  0  0  0  0  0  0  0  0  0
    7.8537    2.7427   -5.7992 C   0  0  0  0  0  0  0  0  0  0  0  0
    8.3224    1.5318   -5.4948 N   0  0  0  0  0  0  0  0  0  0  0  0
    7.7730    0.9186   -4.4291 C   0  0  0  0  0  0  0  0  0  0  0  0
    8.2235   -0.3821   -4.0967 N   0  0  0  0  0  0  0  0  0  0  0  0
    8.7014   -1.3783   -4.9724 C   0  0  0  0  0  0  0  0  0  0  0  0
    8.2741   -1.4612   -6.3049 C   0  0  0  0  0  0  0  0  0  0  0  0
    8.6394   -2.5389   -7.1146 C   0  0  0  0  0  0  0  0  0  0  0  0
    9.4400   -3.5569   -6.6027 C   0  0  0  0  0  0  0  0  0  0  0  0
    9.8942   -3.4946   -5.2825 C   0  0  0  0  0  0  0  0  0  0  0  0
   10.7593   -4.5800   -4.7147 C   0  0  0  0  0  0  0  0  0  0  0  0
    9.5191   -2.4054   -4.4783 C   0  0  0  0  0  0  0  0  0  0  0  0
    6.7550    1.5159   -3.6600 C   0  0  0  0  0  0  0  0  0  0  0  0
    6.1125    0.9219   -2.5391 C   0  0  0  0  0  0  0  0  0  0  0  0
    0.7295   -0.5785    0.5794 H   0  0  0  0  0  0  0  0  0  0  0  0
    0.6288    0.0420   -1.0774 H   0  0  0  0  0  0  0  0  0  0  0  0
    0.7737    1.1709    0.2965 H   0  0  0  0  0  0  0  0  0  0  0  0
    4.5933   -0.0898   -0.7343 H   0  0  0  0  0  0  0  0  0  0  0  0
    3.7783    3.3011   -1.9282 H   0  0  0  0  0  0  0  0  0  0  0  0
    4.9333    4.3605   -3.8149 H   0  0  0  0  0  0  0  0  0  0  0  0
    8.3042    3.2442   -6.6491 H   0  0  0  0  0  0  0  0  0  0  0  0
    8.6578   -0.3911   -3.1820 H   0  0  0  0  0  0  0  0  0  0  0  0
    7.6250   -0.6955   -6.7220 H   0  0  0  0  0  0  0  0  0  0  0  0
    8.2813   -2.5892   -8.1393 H   0  0  0  0  0  0  0  0  0  0  0  0
    9.6974   -4.4007   -7.2387 H   0  0  0  0  0  0  0  0  0  0  0  0
   10.9348   -5.3772   -5.4446 H   0  0  0  0  0  0  0  0  0  0  0  0
   10.2751   -5.0278   -3.8410 H   0  0  0  0  0  0  0  0  0  0  0  0
   11.7313   -4.1724   -4.4199 H   0  0  0  0  0  0  0  0  0  0  0  0
    9.8694   -2.3672   -3.4498 H   0  0  0  0  0  0  0  0  0  0  0  0
    6.4511   -0.0472   -2.1811 H   0  0  0  0  0  0  0  0  0  0  0  0
  1  2  1  0  0  0  0
  1 23  1  0  0  0  0
  1 24  1  0  0  0  0
  1 25  1  0  0  0  0
  2  3  2  0  0  0  0
  3  4  1  0  0  0  0
  4  5  1  0  0  0  0
  4 26  1  0  0  0  0
  5  6  1  0  0  0  0
  5 22  2  0  0  0  0
  6  7  2  0  0  0  0
  6 27  1  0  0  0  0
  7  8  1  0  0  0  0
  7 28  1  0  0  0  0
  8  9  1  0  0  0  0
  8 21  2  0  0  0  0
  9 10  2  0  0  0  0
 10 11  1  0  0  0  0
 10 29  1  0  0  0  0
 11 12  2  0  0  0  0
 12 13  1  0  0  0  0
 12 21  1  0  0  0  0
 13 14  1  0  0  0  0
 13 30  1  0  0  0  0
 14 15  1  0  0  0  0
 14 20  2  0  0  0  0
 15 16  2  0  0  0  0
 15 31  1  0  0  0  0
 16 17  1  0  0  0  0
 16 32  1  0  0  0  0
 17 18  2  0  0  0  0
 17 33  1  0  0  0  0
 18 19  1  0  0  0  0
 18 20  1  0  0  0  0
 19 34  1  0  0  0  0
 19 35  1  0  0  0  0
 19 36  1  0  0  0  0
 20 37  1  0  0  0  0
 21 22  1  0  0  0  0
 22 38  1  0  0  0  0
M  END
$$$$
