
 OpenBabel05112615533D

 54 57  0  0  1  0  0  0  0  0999 V2000
    2.3325    0.7746    0.8913 O   0  0  0  0  0  0  0  0  0  0  0  0
    2.4005   -0.0566   -0.0092 C   0  0  0  0  0  0  0  0  0  0  0  0
    1.8565    0.1304   -1.2657 N   0  0  0  0  0  0  0  0  0  0  0  0
    1.0955    1.3355   -1.6226 C   0  0  3  0  0  0  0  0  0  0  0  0
    0.6756    1.2998   -3.0993 C   0  0  0  0  0  0  0  0  0  0  0  0
   -0.1602    2.5267   -3.4781 C   0  0  0  0  0  0  0  0  0  0  0  0
    0.4485    3.8310   -3.0310 C   0  0  0  0  0  0  0  0  0  0  0  0
    0.0288    5.0374   -3.6137 C   0  0  0  0  0  0  0  0  0  0  0  0
    0.5544    6.2588   -3.1838 C   0  0  0  0  0  0  0  0  0  0  0  0
    1.4951    6.2913   -2.1599 C   0  0  0  0  0  0  0  0  0  0  0  0
    1.9108    5.1014   -1.5693 C   0  0  0  0  0  0  0  0  0  0  0  0
    1.3883    3.8702   -1.9933 C   0  0  0  0  0  0  0  0  0  0  0  0
    1.9062    2.6152   -1.3409 C   0  0  0  0  0  0  0  0  0  0  0  0
    3.1492   -1.3195    0.2385 C   0  0  0  0  0  0  0  0  0  0  0  0
    4.2058   -1.2631    1.1699 C   0  0  0  0  0  0  0  0  0  0  0  0
    4.9672   -2.3923    1.5053 C   0  0  0  0  0  0  0  0  0  0  0  0
    5.9403   -2.2798    2.4935 N   0  0  0  0  0  0  0  0  0  0  0  0
    7.0945   -3.1787    2.5838 C   0  0  0  0  0  0  0  0  0  0  0  0
    7.0813   -3.9830    3.8653 C   0  0  0  0  0  0  0  0  0  0  0  0
    5.8713   -4.3939    4.4485 C   0  0  0  0  0  0  0  0  0  0  0  0
    5.8674   -5.1734    5.6040 C   0  0  0  0  0  0  0  0  0  0  0  0
    4.7015   -5.5798    6.1762 O   0  0  0  0  0  0  0  0  0  0  0  0
    7.0594   -5.5662    6.2001 C   0  0  0  0  0  0  0  0  0  0  0  0
    8.2701   -5.1842    5.6298 C   0  0  0  0  0  0  0  0  0  0  0  0
    8.2759   -4.4067    4.4679 C   0  0  0  0  0  0  0  0  0  0  0  0
    9.4713   -4.0570    3.9002 O   0  0  0  0  0  0  0  0  0  0  0  0
    4.5996   -3.6077    0.9202 C   0  0  0  0  0  0  0  0  0  0  0  0
    3.5475   -3.6864   -0.0042 C   0  0  0  0  0  0  0  0  0  0  0  0
    2.8283   -2.5422   -0.3493 C   0  0  0  0  0  0  0  0  0  0  0  0
    1.7918   -2.6421   -1.2368 O   0  0  0  0  0  0  0  0  0  0  0  0
    1.7849   -0.6967   -1.8520 H   0  0  0  0  0  0  0  0  0  0  0  0
    0.1924    1.3334   -0.9980 H   0  0  0  0  0  0  0  0  0  0  0  0
    0.0974    0.3926   -3.3110 H   0  0  0  0  0  0  0  0  0  0  0  0
    1.5693    1.2531   -3.7361 H   0  0  0  0  0  0  0  0  0  0  0  0
   -1.1568    2.4433   -3.0274 H   0  0  0  0  0  0  0  0  0  0  0  0
   -0.2925    2.5362   -4.5668 H   0  0  0  0  0  0  0  0  0  0  0  0
   -0.7127    5.0341   -4.4088 H   0  0  0  0  0  0  0  0  0  0  0  0
    0.2263    7.1867   -3.6461 H   0  0  0  0  0  0  0  0  0  0  0  0
    1.9064    7.2382   -1.8210 H   0  0  0  0  0  0  0  0  0  0  0  0
    2.6476    5.1333   -0.7678 H   0  0  0  0  0  0  0  0  0  0  0  0
    1.9327    2.7931   -0.2601 H   0  0  0  0  0  0  0  0  0  0  0  0
    2.9430    2.4708   -1.6745 H   0  0  0  0  0  0  0  0  0  0  0  0
    4.4336   -0.3068    1.6395 H   0  0  0  0  0  0  0  0  0  0  0  0
    6.1877   -1.3219    2.7267 H   0  0  0  0  0  0  0  0  0  0  0  0
    7.9892   -2.5466    2.5562 H   0  0  0  0  0  0  0  0  0  0  0  0
    7.1721   -3.8615    1.7277 H   0  0  0  0  0  0  0  0  0  0  0  0
    4.9304   -4.0936    3.9954 H   0  0  0  0  0  0  0  0  0  0  0  0
    3.9651   -5.2098    5.6610 H   0  0  0  0  0  0  0  0  0  0  0  0
    7.0386   -6.1702    7.1023 H   0  0  0  0  0  0  0  0  0  0  0  0
    9.1955   -5.5042    6.1018 H   0  0  0  0  0  0  0  0  0  0  0  0
   10.1925   -4.4055    4.4532 H   0  0  0  0  0  0  0  0  0  0  0  0
    5.1073   -4.5282    1.1966 H   0  0  0  0  0  0  0  0  0  0  0  0
    3.3008   -4.6553   -0.4291 H   0  0  0  0  0  0  0  0  0  0  0  0
    1.5401   -3.5796   -1.3111 H   0  0  0  0  0  0  0  0  0  0  0  0
  1  2  2  0  0  0  0
  2  3  1  0  0  0  0
  2 14  1  0  0  0  0
  3  4  1  0  0  0  0
  3 31  1  0  0  0  0
  4  5  1  0  0  0  0
  4 13  1  0  0  0  0
  4 32  1  0  0  0  0
  5  6  1  0  0  0  0
  5 33  1  0  0  0  0
  5 34  1  0  0  0  0
  6  7  1  0  0  0  0
  6 35  1  0  0  0  0
  6 36  1  0  0  0  0
  7  8  1  0  0  0  0
  7 12  2  0  0  0  0
  8  9  2  0  0  0  0
  8 37  1  0  0  0  0
  9 10  1  0  0  0  0
  9 38  1  0  0  0  0
 10 11  2  0  0  0  0
 10 39  1  0  0  0  0
 11 12  1  0  0  0  0
 11 40  1  0  0  0  0
 12 13  1  0  0  0  0
 13 41  1  0  0  0  0
 13 42  1  0  0  0  0
 14 15  1  0  0  0  0
 14 29  2  0  0  0  0
 15 16  2  0  0  0  0
 15 43  1  0  0  0  0
 16 17  1  0  0  0  0
 16 27  1  0  0  0  0
 17 18  1  0  0  0  0
 17 44  1  0  0  0  0
 18 19  1  0  0  0  0
 18 45  1  0  0  0  0
 18 46  1  0  0  0  0
 19 20  1  0  0  0  0
 19 25  2  0  0  0  0
 20 21  2  0  0  0  0
 20 47  1  0  0  0  0
 21 22  1  0  0  0  0
 21 23  1  0  0  0  0
 22 48  1  0  0  0  0
 23 24  2  0  0  0  0
 23 49  1  0  0  0  0
 24 25  1  0  0  0  0
 24 50  1  0  0  0  0
 25 26  1  0  0  0  0
 26 51  1  0  0  0  0
 27 28  2  0  0  0  0
 27 52  1  0  0  0  0
 28 29  1  0  0  0  0
 28 53  1  0  0  0  0
 29 30  1  0  0  0  0
 30 54  1  0  0  0  0
M  END
$$$$
