
 OpenBabel05112615523D

 57 60  0  0  0  0  0  0  0  0999 V2000
    1.6404    0.8683    0.2152 C   0  0  0  0  0  0  0  0  0  0  0  0
    2.5033   -0.2500    0.3305 O   0  0  0  0  0  0  0  0  0  0  0  0
    3.0374   -0.7663   -0.8178 C   0  0  0  0  0  0  0  0  0  0  0  0
    4.2403   -1.4570   -0.6001 C   0  0  0  0  0  0  0  0  0  0  0  0
    4.9552   -2.0650   -1.6241 C   0  0  0  0  0  0  0  0  0  0  0  0
    6.1137   -2.6644   -1.3419 N   0  0  0  0  0  0  0  0  0  0  0  0
    6.7608   -3.2351   -2.3632 C   0  0  0  0  0  0  0  0  0  0  0  0
    6.3558   -3.2538   -3.6387 N   0  0  0  0  0  0  0  0  0  0  0  0
    5.1925   -2.6378   -3.9141 C   0  0  0  0  0  0  0  0  0  0  0  0
    4.7436   -2.6039   -5.2677 N   0  0  0  0  0  0  0  0  0  0  0  0
    5.2839   -3.4132   -6.2909 C   0  0  0  0  0  0  0  0  0  0  0  0
    5.4520   -4.7923   -6.0791 C   0  0  0  0  0  0  0  0  0  0  0  0
    6.0691   -5.5947   -7.0355 C   0  0  0  0  0  0  0  0  0  0  0  0
    6.5122   -5.0223   -8.2197 C   0  0  0  0  0  0  0  0  0  0  0  0
    7.1346   -5.8014   -9.1149 F   0  0  0  0  0  0  0  0  0  0  0  0
    6.3203   -3.6631   -8.4640 C   0  0  0  0  0  0  0  0  0  0  0  0
    6.8729   -2.9560   -9.9341 Cl  0  0  0  0  0  0  0  0  0  0  0  0
    5.6950   -2.8577   -7.5078 C   0  0  0  0  0  0  0  0  0  0  0  0
    4.4209   -2.0272   -2.9176 C   0  0  0  0  0  0  0  0  0  0  0  0
    3.1776   -1.4015   -3.1389 C   0  0  0  0  0  0  0  0  0  0  0  0
    2.5164   -0.7222   -2.1118 C   0  0  0  0  0  0  0  0  0  0  0  0
    1.2978   -0.0716   -2.3843 O   0  0  0  0  0  0  0  0  0  0  0  0
    1.2189    0.6797   -3.5531 C   0  0  0  0  0  0  0  0  0  0  0  0
    2.1028    0.8729   -4.3745 O   0  0  0  0  0  0  0  0  0  0  0  0
   -0.1563    1.2094   -3.6716 C   0  0  0  0  0  0  0  0  0  0  0  0
   -0.5169    1.8604   -4.7902 C   0  0  0  0  0  0  0  0  0  0  0  0
   -1.8996    2.3689   -5.0689 C   0  0  0  0  0  0  0  0  0  0  0  0
   -2.4606    1.7743   -6.2916 N   0  0  0  0  0  0  0  0  0  0  0  0
   -2.6181    0.3144   -6.1714 C   0  0  0  0  0  0  0  0  0  0  0  0
   -3.1651   -0.2974   -7.4606 C   0  0  0  0  0  0  0  0  0  0  0  0
   -4.4895    0.3399   -7.8549 C   0  0  0  0  0  0  0  0  0  0  0  0
   -4.3518    1.8564   -7.9056 C   0  0  0  0  0  0  0  0  0  0  0  0
   -3.7515    2.4091   -6.6109 C   0  0  0  0  0  0  0  0  0  0  0  0
    1.5601    1.3265    1.2057 H   0  0  0  0  0  0  0  0  0  0  0  0
    0.6356    0.5516   -0.0799 H   0  0  0  0  0  0  0  0  0  0  0  0
    2.0425    1.6253   -0.4668 H   0  0  0  0  0  0  0  0  0  0  0  0
    4.6459   -1.5045    0.4097 H   0  0  0  0  0  0  0  0  0  0  0  0
    7.7041   -3.7235   -2.1453 H   0  0  0  0  0  0  0  0  0  0  0  0
    4.5986   -1.6386   -5.5520 H   0  0  0  0  0  0  0  0  0  0  0  0
    5.1188   -5.2384   -5.1440 H   0  0  0  0  0  0  0  0  0  0  0  0
    6.2192   -6.6531   -6.8499 H   0  0  0  0  0  0  0  0  0  0  0  0
    5.5686   -1.7968   -7.7004 H   0  0  0  0  0  0  0  0  0  0  0  0
    2.7309   -1.4466   -4.1304 H   0  0  0  0  0  0  0  0  0  0  0  0
   -0.8488    1.0158   -2.8618 H   0  0  0  0  0  0  0  0  0  0  0  0
    0.2071    2.0158   -5.5896 H   0  0  0  0  0  0  0  0  0  0  0  0
   -1.8145    3.4551   -5.2017 H   0  0  0  0  0  0  0  0  0  0  0  0
   -2.5624    2.2025   -4.2103 H   0  0  0  0  0  0  0  0  0  0  0  0
   -3.2779    0.0636   -5.3308 H   0  0  0  0  0  0  0  0  0  0  0  0
   -1.6503   -0.1626   -5.9795 H   0  0  0  0  0  0  0  0  0  0  0  0
   -3.2974   -1.3771   -7.3281 H   0  0  0  0  0  0  0  0  0  0  0  0
   -2.4362   -0.1619   -8.2701 H   0  0  0  0  0  0  0  0  0  0  0  0
   -5.2597    0.0645   -7.1240 H   0  0  0  0  0  0  0  0  0  0  0  0
   -4.8159   -0.0428   -8.8279 H   0  0  0  0  0  0  0  0  0  0  0  0
   -5.3351    2.3082   -8.0794 H   0  0  0  0  0  0  0  0  0  0  0  0
   -3.7160    2.1375   -8.7546 H   0  0  0  0  0  0  0  0  0  0  0  0
   -4.4657    2.2671   -5.7889 H   0  0  0  0  0  0  0  0  0  0  0  0
   -3.6136    3.4900   -6.7375 H   0  0  0  0  0  0  0  0  0  0  0  0
  1  2  1  0  0  0  0
  1 34  1  0  0  0  0
  1 35  1  0  0  0  0
  1 36  1  0  0  0  0
  2  3  1  0  0  0  0
  3  4  1  0  0  0  0
  3 21  2  0  0  0  0
  4  5  2  0  0  0  0
  4 37  1  0  0  0  0
  5  6  1  0  0  0  0
  5 19  1  0  0  0  0
  6  7  2  0  0  0  0
  7  8  1  0  0  0  0
  7 38  1  0  0  0  0
  8  9  2  0  0  0  0
  9 10  1  0  0  0  0
  9 19  1  0  0  0  0
 10 11  1  0  0  0  0
 10 39  1  0  0  0  0
 11 12  1  0  0  0  0
 11 18  2  0  0  0  0
 12 13  2  0  0  0  0
 12 40  1  0  0  0  0
 13 14  1  0  0  0  0
 13 41  1  0  0  0  0
 14 15  1  0  0  0  0
 14 16  2  0  0  0  0
 16 17  1  0  0  0  0
 16 18  1  0  0  0  0
 18 42  1  0  0  0  0
 19 20  2  0  0  0  0
 20 21  1  0  0  0  0
 20 43  1  0  0  0  0
 21 22  1  0  0  0  0
 22 23  1  0  0  0  0
 23 24  2  0  0  0  0
 23 25  1  0  0  0  0
 25 26  2  0  0  0  0
 25 44  1  0  0  0  0
 26 27  1  0  0  0  0
 26 45  1  0  0  0  0
 27 28  1  0  0  0  0
 27 46  1  0  0  0  0
 27 47  1  0  0  0  0
 28 29  1  0  0  0  0
 28 33  1  0  0  0  0
 29 30  1  0  0  0  0
 29 48  1  0  0  0  0
 29 49  1  0  0  0  0
 30 31  1  0  0  0  0
 30 50  1  0  0  0  0
 30 51  1  0  0  0  0
 31 32  1  0  0  0  0
 31 52  1  0  0  0  0
 31 53  1  0  0  0  0
 32 33  1  0  0  0  0
 32 54  1  0  0  0  0
 32 55  1  0  0  0  0
 33 56  1  0  0  0  0
 33 57  1  0  0  0  0
M  END
$$$$
