
 OpenBabel05112615523D

 49 52  0  0  0  0  0  0  0  0999 V2000
    1.8493   -0.0396   -1.0091 C   0  0  0  0  0  0  0  0  0  0  0  0
    2.5399    0.3670    0.1611 O   0  0  0  0  0  0  0  0  0  0  0  0
    2.9762   -0.5998    1.0216 C   0  0  0  0  0  0  0  0  0  0  0  0
    4.0226   -0.1675    1.8530 C   0  0  0  0  0  0  0  0  0  0  0  0
    4.6063   -0.9821    2.8195 C   0  0  0  0  0  0  0  0  0  0  0  0
    5.6209   -0.5078    3.5458 N   0  0  0  0  0  0  0  0  0  0  0  0
    6.1343   -1.3309    4.4627 C   0  0  0  0  0  0  0  0  0  0  0  0
    5.7215   -2.5720    4.7303 N   0  0  0  0  0  0  0  0  0  0  0  0
    4.7036   -3.0449    3.9867 C   0  0  0  0  0  0  0  0  0  0  0  0
    4.2462   -4.3733    4.2217 N   0  0  0  0  0  0  0  0  0  0  0  0
    4.5555   -5.1206    5.3787 C   0  0  0  0  0  0  0  0  0  0  0  0
    4.4368   -4.5370    6.6522 C   0  0  0  0  0  0  0  0  0  0  0  0
    4.8120   -5.2288    7.7985 C   0  0  0  0  0  0  0  0  0  0  0  0
    5.3048   -6.5214    7.6804 C   0  0  0  0  0  0  0  0  0  0  0  0
    5.6949   -7.1642    8.7906 F   0  0  0  0  0  0  0  0  0  0  0  0
    5.3953   -7.1332    6.4325 C   0  0  0  0  0  0  0  0  0  0  0  0
    6.0039   -8.7381    6.2869 Cl  0  0  0  0  0  0  0  0  0  0  0  0
    5.0093   -6.4419    5.2798 C   0  0  0  0  0  0  0  0  0  0  0  0
    4.0875   -2.2678    2.9980 C   0  0  0  0  0  0  0  0  0  0  0  0
    2.9978   -2.7032    2.2111 C   0  0  0  0  0  0  0  0  0  0  0  0
    2.4851   -1.8945    1.1943 C   0  0  0  0  0  0  0  0  0  0  0  0
    1.4198   -2.3712    0.4094 O   0  0  0  0  0  0  0  0  0  0  0  0
    1.5122   -3.6687   -0.0767 C   0  0  0  0  0  0  0  0  0  0  0  0
    2.4222   -4.4663    0.0823 O   0  0  0  0  0  0  0  0  0  0  0  0
    0.2654   -3.9504   -0.8191 C   0  0  0  0  0  0  0  0  0  0  0  0
    0.0605   -5.1949   -1.2767 C   0  0  0  0  0  0  0  0  0  0  0  0
   -1.0661   -5.7175   -1.9066 N   0  0  0  0  0  0  0  0  0  0  0  0
   -2.1384   -4.8851   -2.1669 C   0  0  0  0  0  0  0  0  0  0  0  0
   -3.3054   -5.3657   -2.5940 C   0  0  0  0  0  0  0  0  0  0  0  0
   -4.3710   -4.5755   -2.8147 F   0  0  0  0  0  0  0  0  0  0  0  0
   -3.4787   -6.8175   -2.7850 C   0  0  0  0  0  0  0  0  0  0  0  0
   -4.5712   -7.3349   -2.9880 O   0  0  0  0  0  0  0  0  0  0  0  0
   -2.3235   -7.5453   -2.6971 N   0  0  0  0  0  0  0  0  0  0  0  0
   -1.1249   -7.0950   -2.1950 C   0  0  0  0  0  0  0  0  0  0  0  0
   -0.2118   -7.8939   -1.9956 O   0  0  0  0  0  0  0  0  0  0  0  0
    1.7957    0.8252   -1.6778 H   0  0  0  0  0  0  0  0  0  0  0  0
    0.8211   -0.3303   -0.7757 H   0  0  0  0  0  0  0  0  0  0  0  0
    2.3857   -0.8342   -1.5374 H   0  0  0  0  0  0  0  0  0  0  0  0
    4.4075    0.8437    1.7307 H   0  0  0  0  0  0  0  0  0  0  0  0
    6.9657   -0.9541    5.0513 H   0  0  0  0  0  0  0  0  0  0  0  0
    4.3139   -4.9138    3.3618 H   0  0  0  0  0  0  0  0  0  0  0  0
    4.0604   -3.5180    6.7446 H   0  0  0  0  0  0  0  0  0  0  0  0
    4.7391   -4.7604    8.7743 H   0  0  0  0  0  0  0  0  0  0  0  0
    5.0988   -6.9212    4.3108 H   0  0  0  0  0  0  0  0  0  0  0  0
    2.5593   -3.6788    2.3988 H   0  0  0  0  0  0  0  0  0  0  0  0
   -0.4334   -3.1324   -0.9031 H   0  0  0  0  0  0  0  0  0  0  0  0
    0.8432   -5.9407   -1.1078 H   0  0  0  0  0  0  0  0  0  0  0  0
   -2.0534   -3.8189   -2.0130 H   0  0  0  0  0  0  0  0  0  0  0  0
   -2.4049   -8.5441   -2.8119 H   0  0  0  0  0  0  0  0  0  0  0  0
  1  2  1  0  0  0  0
  1 36  1  0  0  0  0
  1 37  1  0  0  0  0
  1 38  1  0  0  0  0
  2  3  1  0  0  0  0
  3  4  1  0  0  0  0
  3 21  2  0  0  0  0
  4  5  2  0  0  0  0
  4 39  1  0  0  0  0
  5  6  1  0  0  0  0
  5 19  1  0  0  0  0
  6  7  2  0  0  0  0
  7  8  1  0  0  0  0
  7 40  1  0  0  0  0
  8  9  2  0  0  0  0
  9 10  1  0  0  0  0
  9 19  1  0  0  0  0
 10 11  1  0  0  0  0
 10 41  1  0  0  0  0
 11 12  1  0  0  0  0
 11 18  2  0  0  0  0
 12 13  2  0  0  0  0
 12 42  1  0  0  0  0
 13 14  1  0  0  0  0
 13 43  1  0  0  0  0
 14 15  1  0  0  0  0
 14 16  2  0  0  0  0
 16 17  1  0  0  0  0
 16 18  1  0  0  0  0
 18 44  1  0  0  0  0
 19 20  2  0  0  0  0
 20 21  1  0  0  0  0
 20 45  1  0  0  0  0
 21 22  1  0  0  0  0
 22 23  1  0  0  0  0
 23 24  2  0  0  0  0
 23 25  1  0  0  0  0
 25 26  2  0  0  0  0
 25 46  1  0  0  0  0
 26 27  1  0  0  0  0
 26 47  1  0  0  0  0
 27 28  1  0  0  0  0
 27 34  1  0  0  0  0
 28 29  2  0  0  0  0
 28 48  1  0  0  0  0
 29 30  1  0  0  0  0
 29 31  1  0  0  0  0
 31 32  2  0  0  0  0
 31 33  1  0  0  0  0
 33 34  1  0  0  0  0
 33 49  1  0  0  0  0
 34 35  2  0  0  0  0
M  END
$$$$
