
 OpenBabel05112615533D

 42 44  0  0  0  0  0  0  0  0999 V2000
    1.6980    1.4421    1.5241 C   0  0  0  0  0  0  0  0  0  0  0  0
    2.9608    0.9163    1.1096 O   0  0  0  0  0  0  0  0  0  0  0  0
    3.1617   -0.3819    1.4909 C   0  0  0  0  0  0  0  0  0  0  0  0
    2.3455   -1.0544    2.1058 O   0  0  0  0  0  0  0  0  0  0  0  0
    4.5165   -0.8688    0.9730 C   0  0  0  0  0  0  0  0  0  0  0  0
    5.1147   -1.9103    1.8515 N   0  0  0  0  0  0  0  0  0  0  0  0
    4.8138   -3.2473    1.6130 C   0  0  0  0  0  0  0  0  0  0  0  0
    5.0401   -4.2823    2.4325 C   0  0  0  0  0  0  0  0  0  0  0  0
    4.5775   -5.6327    2.1032 C   0  0  0  0  0  0  0  0  0  0  0  0
    3.3019   -6.0449    2.5157 C   0  0  0  0  0  0  0  0  0  0  0  0
    2.8318   -7.3185    2.1924 C   0  0  0  0  0  0  0  0  0  0  0  0
    3.6434   -8.1966    1.4761 C   0  0  0  0  0  0  0  0  0  0  0  0
    4.9228   -7.7971    1.0889 C   0  0  0  0  0  0  0  0  0  0  0  0
    5.9412   -8.8995    0.2461 Cl  0  0  0  0  0  0  0  0  0  0  0  0
    5.3895   -6.5167    1.3861 C   0  0  0  0  0  0  0  0  0  0  0  0
    5.6844   -3.9763    3.7260 C   0  0  0  0  0  0  0  0  0  0  0  0
    5.9268   -4.8597    4.5551 O   0  0  0  0  0  0  0  0  0  0  0  0
    6.0432   -2.5722    4.0187 C   0  0  0  0  0  0  0  0  0  0  0  0
    6.6818   -2.2739    5.2333 C   0  0  0  0  0  0  0  0  0  0  0  0
    6.9938   -3.2185    6.1776 O   0  0  0  0  0  0  0  0  0  0  0  0
    7.0442   -0.9730    5.5406 C   0  0  0  0  0  0  0  0  0  0  0  0
    6.7736    0.0450    4.6336 C   0  0  0  0  0  0  0  0  0  0  0  0
    7.0947    1.3650    4.8152 O   0  0  0  0  0  0  0  0  0  0  0  0
    7.7563    1.6917    6.0358 C   0  0  0  0  0  0  0  0  0  0  0  0
    6.1280   -0.2500    3.4159 C   0  0  0  0  0  0  0  0  0  0  0  0
    5.7406   -1.5599    3.0750 C   0  0  0  0  0  0  0  0  0  0  0  0
    1.6486    2.4929    1.2254 H   0  0  0  0  0  0  0  0  0  0  0  0
    1.5928    1.3864    2.6123 H   0  0  0  0  0  0  0  0  0  0  0  0
    0.8851    0.9024    1.0286 H   0  0  0  0  0  0  0  0  0  0  0  0
    5.1744   -0.0117    0.8218 H   0  0  0  0  0  0  0  0  0  0  0  0
    4.3482   -1.3024   -0.0214 H   0  0  0  0  0  0  0  0  0  0  0  0
    4.3089   -3.4163    0.6635 H   0  0  0  0  0  0  0  0  0  0  0  0
    2.6701   -5.3769    3.0989 H   0  0  0  0  0  0  0  0  0  0  0  0
    1.8374   -7.6252    2.5074 H   0  0  0  0  0  0  0  0  0  0  0  0
    3.2788   -9.1907    1.2327 H   0  0  0  0  0  0  0  0  0  0  0  0
    6.3871   -6.2174    1.0755 H   0  0  0  0  0  0  0  0  0  0  0  0
    6.6856   -4.0932    5.8456 H   0  0  0  0  0  0  0  0  0  0  0  0
    7.5387   -0.7958    6.4899 H   0  0  0  0  0  0  0  0  0  0  0  0
    7.9505    2.7681    6.0383 H   0  0  0  0  0  0  0  0  0  0  0  0
    8.7220    1.1795    6.1104 H   0  0  0  0  0  0  0  0  0  0  0  0
    7.1221    1.4657    6.8999 H   0  0  0  0  0  0  0  0  0  0  0  0
    5.9651    0.5862    2.7430 H   0  0  0  0  0  0  0  0  0  0  0  0
  1  2  1  0  0  0  0
  1 27  1  0  0  0  0
  1 28  1  0  0  0  0
  1 29  1  0  0  0  0
  2  3  1  0  0  0  0
  3  4  2  0  0  0  0
  3  5  1  0  0  0  0
  5  6  1  0  0  0  0
  5 30  1  0  0  0  0
  5 31  1  0  0  0  0
  6  7  1  0  0  0  0
  6 26  1  0  0  0  0
  7  8  2  0  0  0  0
  7 32  1  0  0  0  0
  8  9  1  0  0  0  0
  8 16  1  0  0  0  0
  9 10  1  0  0  0  0
  9 15  2  0  0  0  0
 10 11  2  0  0  0  0
 10 33  1  0  0  0  0
 11 12  1  0  0  0  0
 11 34  1  0  0  0  0
 12 13  2  0  0  0  0
 12 35  1  0  0  0  0
 13 14  1  0  0  0  0
 13 15  1  0  0  0  0
 15 36  1  0  0  0  0
 16 17  2  0  0  0  0
 16 18  1  0  0  0  0
 18 19  1  0  0  0  0
 18 26  2  0  0  0  0
 19 20  1  0  0  0  0
 19 21  2  0  0  0  0
 20 37  1  0  0  0  0
 21 22  1  0  0  0  0
 21 38  1  0  0  0  0
 22 23  1  0  0  0  0
 22 25  2  0  0  0  0
 23 24  1  0  0  0  0
 24 39  1  0  0  0  0
 24 40  1  0  0  0  0
 24 41  1  0  0  0  0
 25 26  1  0  0  0  0
 25 42  1  0  0  0  0
M  END
$$$$
