
 OpenBabel05112615533D

 36 38  0  0  0  0  0  0  0  0999 V2000
    1.2154   -0.1396   -0.3686 C   0  0  0  0  0  0  0  0  0  0  0  0
    2.5730    0.0586    0.0225 O   0  0  0  0  0  0  0  0  0  0  0  0
    3.0902   -0.9084    0.8458 C   0  0  0  0  0  0  0  0  0  0  0  0
    2.6696   -2.2309    0.8573 C   0  0  0  0  0  0  0  0  0  0  0  0
    3.2533   -3.1335    1.7438 C   0  0  0  0  0  0  0  0  0  0  0  0
    2.8125   -4.4280    1.7201 O   0  0  0  0  0  0  0  0  0  0  0  0
    4.2667   -2.7244    2.6234 C   0  0  0  0  0  0  0  0  0  0  0  0
    4.8662   -3.6883    3.6009 C   0  0  0  0  0  0  0  0  0  0  0  0
    4.4829   -4.8476    3.7157 O   0  0  0  0  0  0  0  0  0  0  0  0
    5.9579   -3.1878    4.4711 C   0  0  0  0  0  0  0  0  0  0  0  0
    6.6211   -4.0494    5.4529 C   0  0  0  0  0  0  0  0  0  0  0  0
    7.7128   -4.8407    5.0738 C   0  0  0  0  0  0  0  0  0  0  0  0
    8.4058   -5.5860    6.0291 C   0  0  0  0  0  0  0  0  0  0  0  0
    8.0032   -5.5518    7.3645 C   0  0  0  0  0  0  0  0  0  0  0  0
    6.8929   -4.7941    7.7347 C   0  0  0  0  0  0  0  0  0  0  0  0
    6.3908   -4.7628    9.3807 Cl  0  0  0  0  0  0  0  0  0  0  0  0
    6.1977   -4.0458    6.7873 C   0  0  0  0  0  0  0  0  0  0  0  0
    6.3238   -1.9064    4.3421 C   0  0  0  0  0  0  0  0  0  0  0  0
    5.7776   -0.9834    3.4725 N   0  0  0  0  0  0  0  0  0  0  0  0
    6.2667    0.3960    3.4199 C   0  0  0  0  0  0  0  0  0  0  0  0
    4.7374   -1.3847    2.5991 C   0  0  0  0  0  0  0  0  0  0  0  0
    4.1274   -0.4974    1.6898 C   0  0  0  0  0  0  0  0  0  0  0  0
    0.8979    0.7315   -0.9482 H   0  0  0  0  0  0  0  0  0  0  0  0
    0.5668   -0.2178    0.5114 H   0  0  0  0  0  0  0  0  0  0  0  0
    1.1027   -1.0153   -1.0160 H   0  0  0  0  0  0  0  0  0  0  0  0
    1.9073   -2.5813    0.1760 H   0  0  0  0  0  0  0  0  0  0  0  0
    2.0908   -4.5400    1.0842 H   0  0  0  0  0  0  0  0  0  0  0  0
    8.0281   -4.8778    4.0328 H   0  0  0  0  0  0  0  0  0  0  0  0
    9.2602   -6.1884    5.7320 H   0  0  0  0  0  0  0  0  0  0  0  0
    8.5548   -6.1193    8.1088 H   0  0  0  0  0  0  0  0  0  0  0  0
    5.3315   -3.4600    7.0841 H   0  0  0  0  0  0  0  0  0  0  0  0
    7.1208   -1.5062    4.9666 H   0  0  0  0  0  0  0  0  0  0  0  0
    7.0660    0.5687    4.1503 H   0  0  0  0  0  0  0  0  0  0  0  0
    5.4663    1.1069    3.6567 H   0  0  0  0  0  0  0  0  0  0  0  0
    6.6850    0.6269    2.4332 H   0  0  0  0  0  0  0  0  0  0  0  0
    4.4389    0.5417    1.6257 H   0  0  0  0  0  0  0  0  0  0  0  0
  1  2  1  0  0  0  0
  1 23  1  0  0  0  0
  1 24  1  0  0  0  0
  1 25  1  0  0  0  0
  2  3  1  0  0  0  0
  3  4  1  0  0  0  0
  3 22  2  0  0  0  0
  4  5  2  0  0  0  0
  4 26  1  0  0  0  0
  5  6  1  0  0  0  0
  5  7  1  0  0  0  0
  6 27  1  0  0  0  0
  7  8  1  0  0  0  0
  7 21  2  0  0  0  0
  8  9  2  0  0  0  0
  8 10  1  0  0  0  0
 10 11  1  0  0  0  0
 10 18  2  0  0  0  0
 11 12  1  0  0  0  0
 11 17  2  0  0  0  0
 12 13  2  0  0  0  0
 12 28  1  0  0  0  0
 13 14  1  0  0  0  0
 13 29  1  0  0  0  0
 14 15  2  0  0  0  0
 14 30  1  0  0  0  0
 15 16  1  0  0  0  0
 15 17  1  0  0  0  0
 17 31  1  0  0  0  0
 18 19  1  0  0  0  0
 18 32  1  0  0  0  0
 19 20  1  0  0  0  0
 19 21  1  0  0  0  0
 20 33  1  0  0  0  0
 20 34  1  0  0  0  0
 20 35  1  0  0  0  0
 21 22  1  0  0  0  0
 22 36  1  0  0  0  0
M  END
$$$$
