
 OpenBabel05112615533D

 49 52  0  0  0  0  0  0  0  0999 V2000
    4.0068    2.0131    3.4471 C   0  0  0  0  0  0  0  0  0  0  0  0
    2.5071    2.9162    3.1536 S   0  0  0  0  0  0  0  0  0  0  0  0
    1.4956    1.9783    2.7058 O   0  0  0  0  0  0  0  0  0  0  0  0
    2.2677    3.7707    4.3038 O   0  0  0  0  0  0  0  0  0  0  0  0
    2.9177    3.9670    1.7847 C   0  0  0  0  0  0  0  0  0  0  0  0
    2.7260    3.4949    0.4897 C   0  0  0  0  0  0  0  0  0  0  0  0
    3.0437    4.3125   -0.5979 C   0  0  0  0  0  0  0  0  0  0  0  0
    3.5451    5.6060   -0.4087 C   0  0  0  0  0  0  0  0  0  0  0  0
    3.8995    6.4625   -1.4731 N   0  0  0  0  0  0  0  0  0  0  0  0
    3.8620    6.1754   -2.8307 C   0  0  0  0  0  0  0  0  0  0  0  0
    3.5268    5.1068   -3.3292 O   0  0  0  0  0  0  0  0  0  0  0  0
    4.2796    7.2958   -3.6879 C   0  0  0  0  0  0  0  0  0  0  0  0
    4.3135    7.2755   -5.1001 C   0  0  0  0  0  0  0  0  0  0  0  0
    4.7357    8.5286   -5.5101 C   0  0  0  0  0  0  0  0  0  0  0  0
    5.0456    8.9716   -6.8838 C   0  0  0  0  0  0  0  0  0  0  0  0
    4.3327    8.4451   -7.9740 C   0  0  0  0  0  0  0  0  0  0  0  0
    4.5692    8.8986   -9.2774 C   0  0  0  0  0  0  0  0  0  0  0  0
    5.5113    9.8971   -9.5037 C   0  0  0  0  0  0  0  0  0  0  0  0
    5.7573   10.5047  -11.0931 Cl  0  0  0  0  0  0  0  0  0  0  0  0
    6.2562   10.4051   -8.4457 C   0  0  0  0  0  0  0  0  0  0  0  0
    6.0526    9.9127   -7.1529 C   0  0  0  0  0  0  0  0  0  0  0  0
    4.8205    9.2725   -4.3275 N   0  0  0  0  0  0  0  0  0  0  0  0
    4.9831   10.6788   -4.1516 C   0  0  0  0  0  0  0  0  0  0  0  0
    4.5108   11.5906   -5.1058 C   0  0  0  0  0  0  0  0  0  0  0  0
    4.7535   12.9563   -4.9532 C   0  0  0  0  0  0  0  0  0  0  0  0
    5.4333   13.4218   -3.8304 C   0  0  0  0  0  0  0  0  0  0  0  0
    5.8602   12.5254   -2.8511 C   0  0  0  0  0  0  0  0  0  0  0  0
    5.6290   11.1564   -3.0028 C   0  0  0  0  0  0  0  0  0  0  0  0
    4.6934    8.4819   -3.2158 N   0  0  0  0  0  0  0  0  0  0  0  0
    3.7017    6.0782    0.9032 C   0  0  0  0  0  0  0  0  0  0  0  0
    3.3873    5.2656    2.0003 C   0  0  0  0  0  0  0  0  0  0  0  0
    3.8273    1.3104    4.2632 H   0  0  0  0  0  0  0  0  0  0  0  0
    4.7956    2.7136    3.7273 H   0  0  0  0  0  0  0  0  0  0  0  0
    4.2764    1.4661    2.5420 H   0  0  0  0  0  0  0  0  0  0  0  0
    2.3249    2.4989    0.3072 H   0  0  0  0  0  0  0  0  0  0  0  0
    2.8718    3.9018   -1.5883 H   0  0  0  0  0  0  0  0  0  0  0  0
    4.2249    7.4016   -1.2564 H   0  0  0  0  0  0  0  0  0  0  0  0
    4.0881    6.4234   -5.7289 H   0  0  0  0  0  0  0  0  0  0  0  0
    3.5720    7.6817   -7.8250 H   0  0  0  0  0  0  0  0  0  0  0  0
    4.0043    8.4781  -10.1058 H   0  0  0  0  0  0  0  0  0  0  0  0
    6.9913   11.1885   -8.6124 H   0  0  0  0  0  0  0  0  0  0  0  0
    6.6752   10.3108   -6.3535 H   0  0  0  0  0  0  0  0  0  0  0  0
    3.9404   11.2663   -5.9726 H   0  0  0  0  0  0  0  0  0  0  0  0
    4.4091   13.6553   -5.7116 H   0  0  0  0  0  0  0  0  0  0  0  0
    5.6225   14.4861   -3.7143 H   0  0  0  0  0  0  0  0  0  0  0  0
    6.3832   12.8926   -1.9718 H   0  0  0  0  0  0  0  0  0  0  0  0
    5.9958   10.4715   -2.2412 H   0  0  0  0  0  0  0  0  0  0  0  0
    4.0679    7.0847    1.0888 H   0  0  0  0  0  0  0  0  0  0  0  0
    3.5059    5.6521    3.0106 H   0  0  0  0  0  0  0  0  0  0  0  0
  1  2  1  0  0  0  0
  1 32  1  0  0  0  0
  1 33  1  0  0  0  0
  1 34  1  0  0  0  0
  2  3  2  0  0  0  0
  2  4  2  0  0  0  0
  2  5  1  0  0  0  0
  5  6  1  0  0  0  0
  5 31  2  0  0  0  0
  6  7  2  0  0  0  0
  6 35  1  0  0  0  0
  7  8  1  0  0  0  0
  7 36  1  0  0  0  0
  8  9  1  0  0  0  0
  8 30  2  0  0  0  0
  9 10  1  0  0  0  0
  9 37  1  0  0  0  0
 10 11  2  0  0  0  0
 10 12  1  0  0  0  0
 12 13  1  0  0  0  0
 12 29  2  0  0  0  0
 13 14  2  0  0  0  0
 13 38  1  0  0  0  0
 14 15  1  0  0  0  0
 14 22  1  0  0  0  0
 15 16  1  0  0  0  0
 15 21  2  0  0  0  0
 16 17  2  0  0  0  0
 16 39  1  0  0  0  0
 17 18  1  0  0  0  0
 17 40  1  0  0  0  0
 18 19  1  0  0  0  0
 18 20  2  0  0  0  0
 20 21  1  0  0  0  0
 20 41  1  0  0  0  0
 21 42  1  0  0  0  0
 22 23  1  0  0  0  0
 22 29  1  0  0  0  0
 23 24  1  0  0  0  0
 23 28  2  0  0  0  0
 24 25  2  0  0  0  0
 24 43  1  0  0  0  0
 25 26  1  0  0  0  0
 25 44  1  0  0  0  0
 26 27  2  0  0  0  0
 26 45  1  0  0  0  0
 27 28  1  0  0  0  0
 27 46  1  0  0  0  0
 28 47  1  0  0  0  0
 30 31  1  0  0  0  0
 30 48  1  0  0  0  0
 31 49  1  0  0  0  0
M  END
$$$$
