
 OpenBabel05112615533D

 47 49  0  0  0  0  0  0  0  0999 V2000
    2.0069   -0.8454    1.0612 O   0  0  0  0  0  0  0  0  0  0  0  0
    2.1606   -0.1420    0.0705 C   0  0  0  0  0  0  0  0  0  0  0  0
    1.5771    1.1066   -0.0583 N   0  0  0  0  0  0  0  0  0  0  0  0
    0.7588    1.6795    0.9840 C   0  0  0  0  0  0  0  0  0  0  0  0
   -0.6719    1.8545    0.5418 C   0  0  0  0  0  0  0  0  0  0  0  0
   -1.5874    0.8015    0.6883 C   0  0  0  0  0  0  0  0  0  0  0  0
   -2.9276    0.9698    0.3354 C   0  0  0  0  0  0  0  0  0  0  0  0
   -3.3656    2.1897   -0.1776 C   0  0  0  0  0  0  0  0  0  0  0  0
   -2.4602    3.2343   -0.3579 C   0  0  0  0  0  0  0  0  0  0  0  0
   -1.1182    3.0656   -0.0058 C   0  0  0  0  0  0  0  0  0  0  0  0
    2.9873   -0.5981   -1.0890 C   0  0  0  0  0  0  0  0  0  0  0  0
    2.6174   -0.2233   -2.3910 C   0  0  0  0  0  0  0  0  0  0  0  0
    3.3826   -0.5908   -3.5049 C   0  0  0  0  0  0  0  0  0  0  0  0
    2.9505   -0.1475   -4.7596 N   0  0  0  0  0  0  0  0  0  0  0  0
    3.9440   -0.0596   -5.8309 C   0  0  0  0  0  0  0  0  0  0  0  0
    3.4672    0.9080   -6.8860 C   0  0  0  0  0  0  0  0  0  0  0  0
    3.1457    2.2287   -6.5203 C   0  0  0  0  0  0  0  0  0  0  0  0
    2.7772    3.1545   -7.4914 C   0  0  0  0  0  0  0  0  0  0  0  0
    2.4677    4.4409   -7.1638 O   0  0  0  0  0  0  0  0  0  0  0  0
    2.7242    2.7950   -8.8313 C   0  0  0  0  0  0  0  0  0  0  0  0
    3.0317    1.4878   -9.2088 C   0  0  0  0  0  0  0  0  0  0  0  0
    3.3984    0.5545   -8.2376 C   0  0  0  0  0  0  0  0  0  0  0  0
    3.7030   -0.7256   -8.6052 O   0  0  0  0  0  0  0  0  0  0  0  0
    4.4733   -1.4412   -3.3099 C   0  0  0  0  0  0  0  0  0  0  0  0
    4.8390   -1.8527   -2.0256 C   0  0  0  0  0  0  0  0  0  0  0  0
    4.1063   -1.4233   -0.9187 C   0  0  0  0  0  0  0  0  0  0  0  0
    4.5257   -1.7984    0.3257 O   0  0  0  0  0  0  0  0  0  0  0  0
    1.7748    1.6797   -0.8652 H   0  0  0  0  0  0  0  0  0  0  0  0
    1.1937    2.6532    1.2355 H   0  0  0  0  0  0  0  0  0  0  0  0
    0.7959    1.0736    1.8959 H   0  0  0  0  0  0  0  0  0  0  0  0
   -1.2557   -0.1529    1.0940 H   0  0  0  0  0  0  0  0  0  0  0  0
   -3.6322    0.1541    0.4747 H   0  0  0  0  0  0  0  0  0  0  0  0
   -4.4127    2.3266   -0.4359 H   0  0  0  0  0  0  0  0  0  0  0  0
   -2.8007    4.1823   -0.7632 H   0  0  0  0  0  0  0  0  0  0  0  0
   -0.4275    3.8945   -0.1432 H   0  0  0  0  0  0  0  0  0  0  0  0
    1.7247    0.3741   -2.5584 H   0  0  0  0  0  0  0  0  0  0  0  0
    2.1521   -0.7021   -5.0703 H   0  0  0  0  0  0  0  0  0  0  0  0
    4.1274   -1.0573   -6.2430 H   0  0  0  0  0  0  0  0  0  0  0  0
    4.8993    0.3266   -5.4510 H   0  0  0  0  0  0  0  0  0  0  0  0
    3.1943    2.5124   -5.4718 H   0  0  0  0  0  0  0  0  0  0  0  0
    2.5356    4.5369   -6.1993 H   0  0  0  0  0  0  0  0  0  0  0  0
    2.4465    3.5319   -9.5793 H   0  0  0  0  0  0  0  0  0  0  0  0
    2.9910    1.2217  -10.2602 H   0  0  0  0  0  0  0  0  0  0  0  0
    3.5142   -0.8296   -9.5530 H   0  0  0  0  0  0  0  0  0  0  0  0
    5.0609   -1.8016   -4.1500 H   0  0  0  0  0  0  0  0  0  0  0  0
    5.7087   -2.4933   -1.9077 H   0  0  0  0  0  0  0  0  0  0  0  0
    5.0863   -2.5876    0.2530 H   0  0  0  0  0  0  0  0  0  0  0  0
  1  2  2  0  0  0  0
  2  3  1  0  0  0  0
  2 11  1  0  0  0  0
  3  4  1  0  0  0  0
  3 28  1  0  0  0  0
  4  5  1  0  0  0  0
  4 29  1  0  0  0  0
  4 30  1  0  0  0  0
  5  6  1  0  0  0  0
  5 10  2  0  0  0  0
  6  7  2  0  0  0  0
  6 31  1  0  0  0  0
  7  8  1  0  0  0  0
  7 32  1  0  0  0  0
  8  9  2  0  0  0  0
  8 33  1  0  0  0  0
  9 10  1  0  0  0  0
  9 34  1  0  0  0  0
 10 35  1  0  0  0  0
 11 12  1  0  0  0  0
 11 26  2  0  0  0  0
 12 13  2  0  0  0  0
 12 36  1  0  0  0  0
 13 14  1  0  0  0  0
 13 24  1  0  0  0  0
 14 15  1  0  0  0  0
 14 37  1  0  0  0  0
 15 16  1  0  0  0  0
 15 38  1  0  0  0  0
 15 39  1  0  0  0  0
 16 17  1  0  0  0  0
 16 22  2  0  0  0  0
 17 18  2  0  0  0  0
 17 40  1  0  0  0  0
 18 19  1  0  0  0  0
 18 20  1  0  0  0  0
 19 41  1  0  0  0  0
 20 21  2  0  0  0  0
 20 42  1  0  0  0  0
 21 22  1  0  0  0  0
 21 43  1  0  0  0  0
 22 23  1  0  0  0  0
 23 44  1  0  0  0  0
 24 25  2  0  0  0  0
 24 45  1  0  0  0  0
 25 26  1  0  0  0  0
 25 46  1  0  0  0  0
 26 27  1  0  0  0  0
 27 47  1  0  0  0  0
M  END
$$$$
