
 OpenBabel05112615523D

 30 32  0  0  0  0  0  0  0  0999 V2000
   -3.5732    0.3858   -0.3337 N   0  0  0  0  0  0  0  0  0  0  0  0
   -2.2460    0.0181   -0.1034 C   0  0  0  0  0  0  0  0  0  0  0  0
   -1.9005   -1.3244    0.0133 C   0  0  0  0  0  0  0  0  0  0  0  0
   -0.5582   -1.7062    0.1053 C   0  0  0  0  0  0  0  0  0  0  0  0
    0.4701   -0.7788    0.0532 C   0  0  0  0  0  0  0  0  0  0  0  0
    1.7275   -1.2216    0.1415 N   0  0  0  0  0  0  0  0  0  0  0  0
    2.6907   -0.3013    0.0623 C   0  0  0  0  0  0  0  0  0  0  0  0
    2.5117    1.0118   -0.0826 N   0  0  0  0  0  0  0  0  0  0  0  0
    1.2403    1.4528   -0.1556 C   0  0  0  0  0  0  0  0  0  0  0  0
    1.0180    2.8569   -0.2548 N   0  0  0  0  0  0  0  0  0  0  0  0
    2.0319    3.7918   -0.5760 C   0  0  0  0  0  0  0  0  0  0  0  0
    2.8892    3.5674   -1.6642 C   0  0  0  0  0  0  0  0  0  0  0  0
    3.9309    4.4477   -1.9577 C   0  0  0  0  0  0  0  0  0  0  0  0
    4.1224    5.5781   -1.1689 C   0  0  0  0  0  0  0  0  0  0  0  0
    3.2538    5.8303   -0.1081 C   0  0  0  0  0  0  0  0  0  0  0  0
    3.5181    7.3675    0.9629 Br  0  0  0  0  0  0  0  0  0  0  0  0
    2.2049    4.9545    0.1842 C   0  0  0  0  0  0  0  0  0  0  0  0
    0.1439    0.5748   -0.1050 C   0  0  0  0  0  0  0  0  0  0  0  0
   -1.2190    0.9548   -0.2208 C   0  0  0  0  0  0  0  0  0  0  0  0
   -4.2550   -0.2506    0.0693 H   0  0  0  0  0  0  0  0  0  0  0  0
   -3.7847    1.3561   -0.1245 H   0  0  0  0  0  0  0  0  0  0  0  0
   -2.6677   -2.0938    0.0273 H   0  0  0  0  0  0  0  0  0  0  0  0
   -0.3112   -2.7612    0.2057 H   0  0  0  0  0  0  0  0  0  0  0  0
    3.7155   -0.6515    0.1208 H   0  0  0  0  0  0  0  0  0  0  0  0
    0.4573    3.1534    0.5399 H   0  0  0  0  0  0  0  0  0  0  0  0
    2.7547    2.6822   -2.2821 H   0  0  0  0  0  0  0  0  0  0  0  0
    4.5952    4.2379   -2.7911 H   0  0  0  0  0  0  0  0  0  0  0  0
    4.9486    6.2490   -1.3866 H   0  0  0  0  0  0  0  0  0  0  0  0
    1.5482    5.1644    1.0235 H   0  0  0  0  0  0  0  0  0  0  0  0
   -1.4714    1.9937   -0.4219 H   0  0  0  0  0  0  0  0  0  0  0  0
  1  2  1  0  0  0  0
  1 20  1  0  0  0  0
  1 21  1  0  0  0  0
  2  3  1  0  0  0  0
  2 19  2  0  0  0  0
  3  4  2  0  0  0  0
  3 22  1  0  0  0  0
  4  5  1  0  0  0  0
  4 23  1  0  0  0  0
  5  6  1  0  0  0  0
  5 18  2  0  0  0  0
  6  7  2  0  0  0  0
  7  8  1  0  0  0  0
  7 24  1  0  0  0  0
  8  9  2  0  0  0  0
  9 10  1  0  0  0  0
  9 18  1  0  0  0  0
 10 11  1  0  0  0  0
 10 25  1  0  0  0  0
 11 12  1  0  0  0  0
 11 17  2  0  0  0  0
 12 13  2  0  0  0  0
 12 26  1  0  0  0  0
 13 14  1  0  0  0  0
 13 27  1  0  0  0  0
 14 15  2  0  0  0  0
 14 28  1  0  0  0  0
 15 16  1  0  0  0  0
 15 17  1  0  0  0  0
 17 29  1  0  0  0  0
 18 19  1  0  0  0  0
 19 30  1  0  0  0  0
M  END
$$$$
