
 OpenBabel05112615533D

 51 54  0  0  0  0  0  0  0  0999 V2000
    1.0372    0.4483    0.0054 C   0  0  0  0  0  0  0  0  0  0  0  0
    2.5677    0.5061    0.1129 C   0  0  0  0  0  0  0  0  0  0  0  0
    2.9737    1.6824    1.0061 C   0  0  0  0  0  0  0  0  0  0  0  0
    2.9678   -0.7192    0.7437 O   0  0  0  0  0  0  0  0  0  0  0  0
    3.1801    0.6047   -1.3126 C   0  0  0  0  0  0  0  0  0  0  0  0
    4.6325    0.6680   -1.3206 N   0  0  0  0  0  0  0  0  0  0  0  0
    5.4254    1.8288   -1.2825 C   0  0  0  0  0  0  0  0  0  0  0  0
    4.9851    3.0484   -1.2818 N   0  0  0  0  0  0  0  0  0  0  0  0
    5.9156    4.0591   -1.3307 C   0  0  0  0  0  0  0  0  0  0  0  0
    7.1377    3.9260   -1.4038 O   0  0  0  0  0  0  0  0  0  0  0  0
    5.3712    5.4370   -1.3735 C   0  0  0  0  0  0  0  0  0  0  0  0
    4.1992    5.7843   -0.7159 C   0  0  0  0  0  0  0  0  0  0  0  0
    3.7763    7.0948   -0.8305 C   0  0  0  0  0  0  0  0  0  0  0  0
    4.4134    8.0290   -1.5730 N   0  0  0  0  0  0  0  0  0  0  0  0
    5.5403    7.6712   -2.2389 C   0  0  0  0  0  0  0  0  0  0  0  0
    6.1262    8.6871   -3.1409 C   0  0  0  0  0  0  0  0  0  0  0  0
    5.9740   10.0608   -2.8858 C   0  0  0  0  0  0  0  0  0  0  0  0
    6.4701   11.0247   -3.7701 C   0  0  0  0  0  0  0  0  0  0  0  0
    7.1333   10.6357   -4.9303 C   0  0  0  0  0  0  0  0  0  0  0  0
    7.3134    9.2851   -5.2005 C   0  0  0  0  0  0  0  0  0  0  0  0
    6.8153    8.3234   -4.3160 C   0  0  0  0  0  0  0  0  0  0  0  0
    6.0651    6.3898   -2.1218 C   0  0  0  0  0  0  0  0  0  0  0  0
    6.7464    1.3934   -1.2653 N   0  0  0  0  0  0  0  0  0  0  0  0
    6.7937    0.0089   -1.3593 C   0  0  0  0  0  0  0  0  0  0  0  0
    7.8750   -0.8416   -1.3351 C   0  0  0  0  0  0  0  0  0  0  0  0
    7.6117   -2.2118   -1.3678 C   0  0  0  0  0  0  0  0  0  0  0  0
    6.2879   -2.6884   -1.4328 C   0  0  0  0  0  0  0  0  0  0  0  0
    5.1996   -1.8053   -1.4458 C   0  0  0  0  0  0  0  0  0  0  0  0
    5.4640   -0.4551   -1.3811 C   0  0  0  0  0  0  0  0  0  0  0  0
    0.5803    0.3080    0.9923 H   0  0  0  0  0  0  0  0  0  0  0  0
    0.7221   -0.4092   -0.6008 H   0  0  0  0  0  0  0  0  0  0  0  0
    0.6243    1.3587   -0.4408 H   0  0  0  0  0  0  0  0  0  0  0  0
    2.5411    1.5824    2.0081 H   0  0  0  0  0  0  0  0  0  0  0  0
    2.6438    2.6375    0.5846 H   0  0  0  0  0  0  0  0  0  0  0  0
    4.0574    1.7153    1.1541 H   0  0  0  0  0  0  0  0  0  0  0  0
    2.7522   -0.6561    1.6906 H   0  0  0  0  0  0  0  0  0  0  0  0
    2.7786    1.4916   -1.8185 H   0  0  0  0  0  0  0  0  0  0  0  0
    2.8495   -0.2550   -1.9103 H   0  0  0  0  0  0  0  0  0  0  0  0
    3.6427    5.0689   -0.1208 H   0  0  0  0  0  0  0  0  0  0  0  0
    2.8815    7.4428   -0.3247 H   0  0  0  0  0  0  0  0  0  0  0  0
    5.4516   10.3894   -1.9885 H   0  0  0  0  0  0  0  0  0  0  0  0
    6.3275   12.0806   -3.5535 H   0  0  0  0  0  0  0  0  0  0  0  0
    7.5040   11.3839   -5.6255 H   0  0  0  0  0  0  0  0  0  0  0  0
    7.8289    8.9715   -6.1047 H   0  0  0  0  0  0  0  0  0  0  0  0
    6.9518    7.2771   -4.5801 H   0  0  0  0  0  0  0  0  0  0  0  0
    6.9878    6.1134   -2.6230 H   0  0  0  0  0  0  0  0  0  0  0  0
    7.5218    2.0301   -1.3727 H   0  0  0  0  0  0  0  0  0  0  0  0
    8.8896   -0.4660   -1.2780 H   0  0  0  0  0  0  0  0  0  0  0  0
    8.4367   -2.9197   -1.3319 H   0  0  0  0  0  0  0  0  0  0  0  0
    6.1083   -3.7610   -1.4558 H   0  0  0  0  0  0  0  0  0  0  0  0
    4.1863   -2.1862   -1.4826 H   0  0  0  0  0  0  0  0  0  0  0  0
  1  2  1  0  0  0  0
  1 30  1  0  0  0  0
  1 31  1  0  0  0  0
  1 32  1  0  0  0  0
  2  3  1  0  0  0  0
  2  4  1  0  0  0  0
  2  5  1  0  0  0  0
  3 33  1  0  0  0  0
  3 34  1  0  0  0  0
  3 35  1  0  0  0  0
  4 36  1  0  0  0  0
  5  6  1  0  0  0  0
  5 37  1  0  0  0  0
  5 38  1  0  0  0  0
  6  7  1  0  0  0  0
  6 29  1  0  0  0  0
  7  8  2  0  0  0  0
  7 23  1  0  0  0  0
  8  9  1  0  0  0  0
  9 10  2  0  0  0  0
  9 11  1  0  0  0  0
 11 12  1  0  0  0  0
 11 22  2  0  0  0  0
 12 13  2  0  0  0  0
 12 39  1  0  0  0  0
 13 14  1  0  0  0  0
 13 40  1  0  0  0  0
 14 15  2  0  0  0  0
 15 16  1  0  0  0  0
 15 22  1  0  0  0  0
 16 17  1  0  0  0  0
 16 21  2  0  0  0  0
 17 18  2  0  0  0  0
 17 41  1  0  0  0  0
 18 19  1  0  0  0  0
 18 42  1  0  0  0  0
 19 20  2  0  0  0  0
 19 43  1  0  0  0  0
 20 21  1  0  0  0  0
 20 44  1  0  0  0  0
 21 45  1  0  0  0  0
 22 46  1  0  0  0  0
 23 24  1  0  0  0  0
 23 47  1  0  0  0  0
 24 25  1  0  0  0  0
 24 29  2  0  0  0  0
 25 26  2  0  0  0  0
 25 48  1  0  0  0  0
 26 27  1  0  0  0  0
 26 49  1  0  0  0  0
 27 28  2  0  0  0  0
 27 50  1  0  0  0  0
 28 29  1  0  0  0  0
 28 51  1  0  0  0  0
M  END
$$$$
