
 OpenBabel05112615523D

 50 53  0  0  0  0  0  0  0  0999 V2000
    2.4505   -1.5785    0.3269 C   0  0  0  0  0  0  0  0  0  0  0  0
    2.2748   -0.1988   -0.0257 O   0  0  0  0  0  0  0  0  0  0  0  0
    3.0243    0.2123   -1.1052 C   0  0  0  0  0  0  0  0  0  0  0  0
    4.2137   -0.4345   -1.4891 C   0  0  0  0  0  0  0  0  0  0  0  0
    4.9321   -0.0638   -2.6171 C   0  0  0  0  0  0  0  0  0  0  0  0
    6.0437   -0.7354   -2.9280 N   0  0  0  0  0  0  0  0  0  0  0  0
    6.6683   -0.3626   -4.0521 C   0  0  0  0  0  0  0  0  0  0  0  0
    6.2861    0.6112   -4.8787 N   0  0  0  0  0  0  0  0  0  0  0  0
    5.1747    1.2950   -4.5457 C   0  0  0  0  0  0  0  0  0  0  0  0
    4.7347    2.3491   -5.3917 N   0  0  0  0  0  0  0  0  0  0  0  0
    5.2305    2.5627   -6.6922 C   0  0  0  0  0  0  0  0  0  0  0  0
    5.3076    1.4896   -7.5953 C   0  0  0  0  0  0  0  0  0  0  0  0
    5.9187    1.6412   -8.8357 C   0  0  0  0  0  0  0  0  0  0  0  0
    6.4468    2.8757   -9.1852 C   0  0  0  0  0  0  0  0  0  0  0  0
    7.0716    2.9950  -10.3656 F   0  0  0  0  0  0  0  0  0  0  0  0
    6.3401    3.9645   -8.3199 C   0  0  0  0  0  0  0  0  0  0  0  0
    6.9988    5.4947   -8.7571 Cl  0  0  0  0  0  0  0  0  0  0  0  0
    5.7220    3.8145   -7.0765 C   0  0  0  0  0  0  0  0  0  0  0  0
    4.4396    0.9797   -3.3972 C   0  0  0  0  0  0  0  0  0  0  0  0
    3.2610    1.6448   -3.0123 C   0  0  0  0  0  0  0  0  0  0  0  0
    2.5879    1.3311   -1.8322 C   0  0  0  0  0  0  0  0  0  0  0  0
    1.4926    2.1292   -1.3972 N   0  0  0  0  0  0  0  0  0  0  0  0
    1.2535    3.4203   -1.8488 C   0  0  0  0  0  0  0  0  0  0  0  0
    1.9676    4.0642   -2.6148 O   0  0  0  0  0  0  0  0  0  0  0  0
    0.0279    4.0539   -1.2990 C   0  0  0  0  0  0  0  0  0  0  0  0
   -0.3303    5.2569   -1.7863 C   0  0  0  0  0  0  0  0  0  0  0  0
   -1.4136    6.0373   -1.3938 N   0  0  0  0  0  0  0  0  0  0  0  0
   -1.5169    7.2536   -2.0592 C   0  0  0  0  0  0  0  0  0  0  0  0
   -2.4462    8.1547   -1.7385 C   0  0  0  0  0  0  0  0  0  0  0  0
   -2.5494    9.3412   -2.3654 F   0  0  0  0  0  0  0  0  0  0  0  0
   -3.3871    7.8803   -0.6403 C   0  0  0  0  0  0  0  0  0  0  0  0
   -4.1750    8.7150   -0.2129 O   0  0  0  0  0  0  0  0  0  0  0  0
   -3.3016    6.6180   -0.1189 N   0  0  0  0  0  0  0  0  0  0  0  0
   -2.3318    5.6804   -0.3930 C   0  0  0  0  0  0  0  0  0  0  0  0
   -2.3304    4.6330    0.2495 O   0  0  0  0  0  0  0  0  0  0  0  0
    1.6654   -1.8615    1.0333 H   0  0  0  0  0  0  0  0  0  0  0  0
    3.4133   -1.7395    0.8262 H   0  0  0  0  0  0  0  0  0  0  0  0
    2.3573   -2.2313   -0.5506 H   0  0  0  0  0  0  0  0  0  0  0  0
    4.6273   -1.2521   -0.9058 H   0  0  0  0  0  0  0  0  0  0  0  0
    7.5673   -0.9078   -4.3199 H   0  0  0  0  0  0  0  0  0  0  0  0
    4.6085    3.2026   -4.8539 H   0  0  0  0  0  0  0  0  0  0  0  0
    4.9126    0.5167   -7.3090 H   0  0  0  0  0  0  0  0  0  0  0  0
    6.0041    0.7973   -9.5119 H   0  0  0  0  0  0  0  0  0  0  0  0
    5.6664    4.6610   -6.3976 H   0  0  0  0  0  0  0  0  0  0  0  0
    2.8633    2.4017   -3.6796 H   0  0  0  0  0  0  0  0  0  0  0  0
    0.9724    1.7665   -0.6038 H   0  0  0  0  0  0  0  0  0  0  0  0
   -0.5078    3.5255   -0.5272 H   0  0  0  0  0  0  0  0  0  0  0  0
    0.2952    5.6912   -2.5685 H   0  0  0  0  0  0  0  0  0  0  0  0
   -0.8182    7.4851   -2.8589 H   0  0  0  0  0  0  0  0  0  0  0  0
   -3.9290    6.3944    0.6379 H   0  0  0  0  0  0  0  0  0  0  0  0
  1  2  1  0  0  0  0
  1 36  1  0  0  0  0
  1 37  1  0  0  0  0
  1 38  1  0  0  0  0
  2  3  1  0  0  0  0
  3  4  1  0  0  0  0
  3 21  2  0  0  0  0
  4  5  2  0  0  0  0
  4 39  1  0  0  0  0
  5  6  1  0  0  0  0
  5 19  1  0  0  0  0
  6  7  2  0  0  0  0
  7  8  1  0  0  0  0
  7 40  1  0  0  0  0
  8  9  2  0  0  0  0
  9 10  1  0  0  0  0
  9 19  1  0  0  0  0
 10 11  1  0  0  0  0
 10 41  1  0  0  0  0
 11 12  1  0  0  0  0
 11 18  2  0  0  0  0
 12 13  2  0  0  0  0
 12 42  1  0  0  0  0
 13 14  1  0  0  0  0
 13 43  1  0  0  0  0
 14 15  1  0  0  0  0
 14 16  2  0  0  0  0
 16 17  1  0  0  0  0
 16 18  1  0  0  0  0
 18 44  1  0  0  0  0
 19 20  2  0  0  0  0
 20 21  1  0  0  0  0
 20 45  1  0  0  0  0
 21 22  1  0  0  0  0
 22 23  1  0  0  0  0
 22 46  1  0  0  0  0
 23 24  2  0  0  0  0
 23 25  1  0  0  0  0
 25 26  2  0  0  0  0
 25 47  1  0  0  0  0
 26 27  1  0  0  0  0
 26 48  1  0  0  0  0
 27 28  1  0  0  0  0
 27 34  1  0  0  0  0
 28 29  2  0  0  0  0
 28 49  1  0  0  0  0
 29 30  1  0  0  0  0
 29 31  1  0  0  0  0
 31 32  2  0  0  0  0
 31 33  1  0  0  0  0
 33 34  1  0  0  0  0
 33 50  1  0  0  0  0
 34 35  2  0  0  0  0
M  END
$$$$
