
 OpenBabel05112615533D

 40 43  0  0  1  0  0  0  0  0999 V2000
    3.6353   -0.7399    0.3616 O   0  0  0  0  0  0  0  0  0  0  0  0
    2.7185   -0.2768   -0.3092 C   0  0  0  0  0  0  0  0  0  0  0  0
    1.4389   -0.8136   -0.4127 N   0  0  0  0  0  0  0  0  0  0  0  0
    1.0524   -1.9415    0.2511 C   0  0  0  0  0  0  0  0  0  0  0  0
    1.6353   -2.5701    1.2355 N   0  0  0  0  0  0  0  0  0  0  0  0
    0.9162   -3.7116    1.5304 C   0  0  0  0  0  0  0  0  0  0  0  0
   -0.1834   -3.9437    0.7307 C   0  0  0  0  0  0  0  0  0  0  0  0
   -0.3955   -2.6217   -0.3427 S   0  0  0  0  0  0  0  0  0  0  0  0
    2.8837    1.0045   -1.2042 C   0  0  3  0  0  0  0  0  0  0  0  0
    2.0336    2.1168   -0.6136 C   0  0  0  0  0  0  0  0  0  0  0  0
    2.2248    2.5366    0.7118 C   0  0  0  0  0  0  0  0  0  0  0  0
    1.2188    3.2214    1.3901 C   0  0  0  0  0  0  0  0  0  0  0  0
    0.0112    3.4929    0.7533 C   0  0  0  0  0  0  0  0  0  0  0  0
   -0.1637    3.1524   -0.5861 C   0  0  0  0  0  0  0  0  0  0  0  0
    0.8489    2.4893   -1.2752 C   0  0  0  0  0  0  0  0  0  0  0  0
    4.2685    1.2722   -1.6274 N   0  0  0  0  0  0  0  0  0  0  0  0
    4.8924    0.2173   -2.4169 C   0  0  0  0  0  0  0  0  0  0  0  0
    6.0569   -0.1842   -1.5930 C   0  0  0  0  0  0  0  0  0  0  0  0
    6.7605   -1.3719   -1.5634 C   0  0  0  0  0  0  0  0  0  0  0  0
    7.7912   -1.4962   -0.6294 C   0  0  0  0  0  0  0  0  0  0  0  0
    8.1287   -0.4237    0.2228 C   0  0  0  0  0  0  0  0  0  0  0  0
    7.3958    0.7622    0.1985 C   0  0  0  0  0  0  0  0  0  0  0  0
    6.3447    0.8368   -0.6928 C   0  0  0  0  0  0  0  0  0  0  0  0
    5.2125    1.7840   -0.7213 C   0  0  0  0  0  0  0  0  0  0  0  0
    5.1355    2.7508    0.0051 O   0  0  0  0  0  0  0  0  0  0  0  0
    0.7636   -0.4162   -1.0516 H   0  0  0  0  0  0  0  0  0  0  0  0
    1.2563   -4.3575    2.3308 H   0  0  0  0  0  0  0  0  0  0  0  0
   -0.8578   -4.7878    0.7394 H   0  0  0  0  0  0  0  0  0  0  0  0
    2.4043    0.7387   -2.1605 H   0  0  0  0  0  0  0  0  0  0  0  0
    3.1287    2.2661    1.2570 H   0  0  0  0  0  0  0  0  0  0  0  0
    1.3659    3.4951    2.4316 H   0  0  0  0  0  0  0  0  0  0  0  0
   -0.7966    3.9621    1.3073 H   0  0  0  0  0  0  0  0  0  0  0  0
   -1.1069    3.3676   -1.0815 H   0  0  0  0  0  0  0  0  0  0  0  0
    0.6745    2.1948   -2.3077 H   0  0  0  0  0  0  0  0  0  0  0  0
    5.2354    0.6658   -3.3568 H   0  0  0  0  0  0  0  0  0  0  0  0
    4.2056   -0.6058   -2.6307 H   0  0  0  0  0  0  0  0  0  0  0  0
    6.4781   -2.2096   -2.1939 H   0  0  0  0  0  0  0  0  0  0  0  0
    8.3196   -2.4426   -0.5356 H   0  0  0  0  0  0  0  0  0  0  0  0
    8.9345   -0.5482    0.9418 H   0  0  0  0  0  0  0  0  0  0  0  0
    7.5948    1.5680    0.8970 H   0  0  0  0  0  0  0  0  0  0  0  0
  1  2  2  0  0  0  0
  2  3  1  0  0  0  0
  2  9  1  0  0  0  0
  3  4  1  0  0  0  0
  3 26  1  0  0  0  0
  4  5  2  0  0  0  0
  4  8  1  0  0  0  0
  5  6  1  0  0  0  0
  6  7  2  0  0  0  0
  6 27  1  0  0  0  0
  7  8  1  0  0  0  0
  7 28  1  0  0  0  0
  9 10  1  0  0  0  0
  9 16  1  0  0  0  0
  9 29  1  0  0  0  0
 10 11  1  0  0  0  0
 10 15  2  0  0  0  0
 11 12  2  0  0  0  0
 11 30  1  0  0  0  0
 12 13  1  0  0  0  0
 12 31  1  0  0  0  0
 13 14  2  0  0  0  0
 13 32  1  0  0  0  0
 14 15  1  0  0  0  0
 14 33  1  0  0  0  0
 15 34  1  0  0  0  0
 16 17  1  0  0  0  0
 16 24  1  0  0  0  0
 17 18  1  0  0  0  0
 17 35  1  0  0  0  0
 17 36  1  0  0  0  0
 18 19  1  0  0  0  0
 18 23  2  0  0  0  0
 19 20  2  0  0  0  0
 19 37  1  0  0  0  0
 20 21  1  0  0  0  0
 20 38  1  0  0  0  0
 21 22  2  0  0  0  0
 21 39  1  0  0  0  0
 22 23  1  0  0  0  0
 22 40  1  0  0  0  0
 23 24  1  0  0  0  0
 24 25  2  0  0  0  0
M  END
$$$$
