
 OpenBabel05112615533D

 90 96  0  0  1  0  0  0  0  0999 V2000
   11.3088    0.4629   -2.0146 C   0  0  0  0  0  0  0  0  0  0  0  0
   10.9553    1.5395   -2.8776 O   0  0  0  0  0  0  0  0  0  0  0  0
    9.6789    2.0368   -2.8489 C   0  0  0  0  0  0  0  0  0  0  0  0
    8.6065    1.4156   -2.1926 C   0  0  0  0  0  0  0  0  0  0  0  0
    7.3512    2.0081   -2.0992 C   0  0  0  0  0  0  0  0  0  0  0  0
    6.4015    1.3432   -1.4256 N   0  0  0  0  0  0  0  0  0  0  0  0
    5.2205    1.9602   -1.3120 C   0  0  0  0  0  0  0  0  0  0  0  0
    4.8937    3.1544   -1.7969 N   0  0  0  0  0  0  0  0  0  0  0  0
    5.8439    3.8166   -2.4805 C   0  0  0  0  0  0  0  0  0  0  0  0
    5.5605    5.1091   -2.9854 N   0  0  0  0  0  0  0  0  0  0  0  0
    4.2671    5.6357   -2.5567 C   0  0  0  0  0  0  0  0  0  0  0  0
    4.1164    7.1244   -2.8231 C   0  0  0  0  0  0  0  0  0  0  0  0
    2.8259    7.6653   -2.9406 C   0  0  0  0  0  0  0  0  0  0  0  0
    2.6165    9.0509   -3.0243 C   0  0  0  0  0  0  0  0  0  0  0  0
    3.6920    9.9350   -2.9912 C   0  0  0  0  0  0  0  0  0  0  0  0
    3.5599   11.3431   -3.0428 N   0  0  0  0  0  0  0  0  0  0  0  0
    2.3845   12.1022   -3.0167 C   0  0  0  0  0  0  0  0  0  0  0  0
    1.2485   11.6485   -2.8893 O   0  0  0  0  0  0  0  0  0  0  0  0
    2.6524   13.6267   -3.3068 C   0  0  3  0  0  0  0  0  0  0  0  0
    3.0438   13.7740   -4.7943 C   0  0  0  0  0  0  0  0  0  0  0  0
    2.4231   13.0025   -5.7937 C   0  0  0  0  0  0  0  0  0  0  0  0
    2.9416   12.9666   -7.0880 C   0  0  0  0  0  0  0  0  0  0  0  0
    4.0456   13.7473   -7.4176 C   0  0  0  0  0  0  0  0  0  0  0  0
    4.5890   14.6151   -6.4731 C   0  0  0  0  0  0  0  0  0  0  0  0
    4.0899   14.6332   -5.1695 C   0  0  0  0  0  0  0  0  0  0  0  0
    1.6182   14.5906   -2.8678 N   0  0  0  0  0  0  0  0  0  0  0  0
    0.2720   14.4851   -3.4123 C   0  0  0  0  0  0  0  0  0  0  0  0
    0.2769   15.5546   -4.4441 C   0  0  0  0  0  0  0  0  0  0  0  0
   -0.3164   15.5724   -5.6900 C   0  0  0  0  0  0  0  0  0  0  0  0
    0.0748   16.5778   -6.5779 C   0  0  0  0  0  0  0  0  0  0  0  0
    0.9991   17.5701   -6.1936 C   0  0  0  0  0  0  0  0  0  0  0  0
    1.5829   17.5517   -4.9252 C   0  0  0  0  0  0  0  0  0  0  0  0
    1.2206   16.5162   -4.0851 C   0  0  0  0  0  0  0  0  0  0  0  0
    2.0253   15.9390   -2.9884 C   0  0  0  0  0  0  0  0  0  0  0  0
    3.0115   16.4615   -2.5005 O   0  0  0  0  0  0  0  0  0  0  0  0
    4.9858    9.4022   -2.9089 C   0  0  0  0  0  0  0  0  0  0  0  0
    5.1958    8.0150   -2.8085 C   0  0  0  0  0  0  0  0  0  0  0  0
    7.1286    3.2727   -2.6706 C   0  0  0  0  0  0  0  0  0  0  0  0
    8.1967    3.8813   -3.3718 C   0  0  0  0  0  0  0  0  0  0  0  0
    9.4453    3.2569   -3.4895 C   0  0  0  0  0  0  0  0  0  0  0  0
   10.3602    3.9894   -4.1956 O   0  0  0  0  0  0  0  0  0  0  0  0
   11.2160    3.2616   -5.0845 C   0  0  0  0  0  0  0  0  0  0  0  0
   11.4116    4.0954   -6.3586 C   0  0  0  0  0  0  0  0  0  0  0  0
   11.9621    5.4871   -6.0209 C   0  0  0  0  0  0  0  0  0  0  0  0
   12.2747    6.3500   -7.1766 N   0  0  0  0  0  0  0  0  0  0  0  0
   12.8075    7.6527   -6.6950 C   0  0  0  0  0  0  0  0  0  0  0  0
   11.7414    8.5645   -6.0529 C   0  0  0  0  0  0  0  0  0  0  0  0
   10.6329    8.7890   -6.9341 O   0  0  0  0  0  0  0  0  0  0  0  0
   10.0575    7.5482   -7.3649 C   0  0  0  0  0  0  0  0  0  0  0  0
   11.1103    6.6532   -8.0390 C   0  0  0  0  0  0  0  0  0  0  0  0
   11.3280   -0.4677   -2.5895 H   0  0  0  0  0  0  0  0  0  0  0  0
   10.6755    0.3495   -1.1311 H   0  0  0  0  0  0  0  0  0  0  0  0
   12.3210    0.6544   -1.6446 H   0  0  0  0  0  0  0  0  0  0  0  0
    8.7183    0.4447   -1.7273 H   0  0  0  0  0  0  0  0  0  0  0  0
    4.4506    1.4281   -0.7552 H   0  0  0  0  0  0  0  0  0  0  0  0
    5.6358    5.0822   -4.0001 H   0  0  0  0  0  0  0  0  0  0  0  0
    4.1381    5.5095   -1.4736 H   0  0  0  0  0  0  0  0  0  0  0  0
    3.4652    5.0923   -3.0741 H   0  0  0  0  0  0  0  0  0  0  0  0
    1.9566    7.0098   -2.9380 H   0  0  0  0  0  0  0  0  0  0  0  0
    1.5924    9.4022   -3.1051 H   0  0  0  0  0  0  0  0  0  0  0  0
    4.4287   11.8593   -3.1224 H   0  0  0  0  0  0  0  0  0  0  0  0
    3.5448   13.8766   -2.7146 H   0  0  0  0  0  0  0  0  0  0  0  0
    1.5590   12.3807   -5.5653 H   0  0  0  0  0  0  0  0  0  0  0  0
    2.5001   12.3059   -7.8298 H   0  0  0  0  0  0  0  0  0  0  0  0
    4.4804   13.6815   -8.4115 H   0  0  0  0  0  0  0  0  0  0  0  0
    5.4217   15.2591   -6.7444 H   0  0  0  0  0  0  0  0  0  0  0  0
    4.5385   15.3104   -4.4437 H   0  0  0  0  0  0  0  0  0  0  0  0
   -0.4272   14.7706   -2.6111 H   0  0  0  0  0  0  0  0  0  0  0  0
    0.0179   13.4944   -3.7795 H   0  0  0  0  0  0  0  0  0  0  0  0
   -0.9740   14.7703   -6.0095 H   0  0  0  0  0  0  0  0  0  0  0  0
   -0.2952   16.5590   -7.6006 H   0  0  0  0  0  0  0  0  0  0  0  0
    1.3176   18.3129   -6.9212 H   0  0  0  0  0  0  0  0  0  0  0  0
    2.3756   18.2410   -4.6555 H   0  0  0  0  0  0  0  0  0  0  0  0
    5.8548   10.0557   -2.8836 H   0  0  0  0  0  0  0  0  0  0  0  0
    6.2110    7.6407   -2.6877 H   0  0  0  0  0  0  0  0  0  0  0  0
    8.0549    4.8592   -3.8222 H   0  0  0  0  0  0  0  0  0  0  0  0
   10.7946    2.2892   -5.3668 H   0  0  0  0  0  0  0  0  0  0  0  0
   12.1814    3.1094   -4.5894 H   0  0  0  0  0  0  0  0  0  0  0  0
   10.4389    4.1922   -6.8545 H   0  0  0  0  0  0  0  0  0  0  0  0
   12.0876    3.5687   -7.0415 H   0  0  0  0  0  0  0  0  0  0  0  0
   12.8924    5.3385   -5.4575 H   0  0  0  0  0  0  0  0  0  0  0  0
   11.2629    5.9846   -5.3421 H   0  0  0  0  0  0  0  0  0  0  0  0
   13.2372    8.1757   -7.5592 H   0  0  0  0  0  0  0  0  0  0  0  0
   13.6357    7.4912   -5.9947 H   0  0  0  0  0  0  0  0  0  0  0  0
   12.1826    9.5401   -5.8257 H   0  0  0  0  0  0  0  0  0  0  0  0
   11.3683    8.1547   -5.1076 H   0  0  0  0  0  0  0  0  0  0  0  0
    9.2654    7.7881   -8.0816 H   0  0  0  0  0  0  0  0  0  0  0  0
    9.5847    7.0487   -6.5118 H   0  0  0  0  0  0  0  0  0  0  0  0
   11.4905    7.1838   -8.9234 H   0  0  0  0  0  0  0  0  0  0  0  0
   10.6510    5.7380   -8.4249 H   0  0  0  0  0  0  0  0  0  0  0  0
  1  2  1  0  0  0  0
  1 51  1  0  0  0  0
  1 52  1  0  0  0  0
  1 53  1  0  0  0  0
  2  3  1  0  0  0  0
  3  4  1  0  0  0  0
  3 40  2  0  0  0  0
  4  5  2  0  0  0  0
  4 54  1  0  0  0  0
  5  6  1  0  0  0  0
  5 38  1  0  0  0  0
  6  7  2  0  0  0  0
  7  8  1  0  0  0  0
  7 55  1  0  0  0  0
  8  9  2  0  0  0  0
  9 10  1  0  0  0  0
  9 38  1  0  0  0  0
 10 11  1  0  0  0  0
 10 56  1  0  0  0  0
 11 12  1  0  0  0  0
 11 57  1  0  0  0  0
 11 58  1  0  0  0  0
 12 13  1  0  0  0  0
 12 37  2  0  0  0  0
 13 14  2  0  0  0  0
 13 59  1  0  0  0  0
 14 15  1  0  0  0  0
 14 60  1  0  0  0  0
 15 16  1  0  0  0  0
 15 36  2  0  0  0  0
 16 17  1  0  0  0  0
 16 61  1  0  0  0  0
 17 18  2  0  0  0  0
 17 19  1  0  0  0  0
 19 20  1  0  0  0  0
 19 26  1  0  0  0  0
 19 62  1  0  0  0  0
 20 21  1  0  0  0  0
 20 25  2  0  0  0  0
 21 22  2  0  0  0  0
 21 63  1  0  0  0  0
 22 23  1  0  0  0  0
 22 64  1  0  0  0  0
 23 24  2  0  0  0  0
 23 65  1  0  0  0  0
 24 25  1  0  0  0  0
 24 66  1  0  0  0  0
 25 67  1  0  0  0  0
 26 27  1  0  0  0  0
 26 34  1  0  0  0  0
 27 28  1  0  0  0  0
 27 68  1  0  0  0  0
 27 69  1  0  0  0  0
 28 29  1  0  0  0  0
 28 33  2  0  0  0  0
 29 30  2  0  0  0  0
 29 70  1  0  0  0  0
 30 31  1  0  0  0  0
 30 71  1  0  0  0  0
 31 32  2  0  0  0  0
 31 72  1  0  0  0  0
 32 33  1  0  0  0  0
 32 73  1  0  0  0  0
 33 34  1  0  0  0  0
 34 35  2  0  0  0  0
 36 37  1  0  0  0  0
 36 74  1  0  0  0  0
 37 75  1  0  0  0  0
 38 39  2  0  0  0  0
 39 40  1  0  0  0  0
 39 76  1  0  0  0  0
 40 41  1  0  0  0  0
 41 42  1  0  0  0  0
 42 43  1  0  0  0  0
 42 77  1  0  0  0  0
 42 78  1  0  0  0  0
 43 44  1  0  0  0  0
 43 79  1  0  0  0  0
 43 80  1  0  0  0  0
 44 45  1  0  0  0  0
 44 81  1  0  0  0  0
 44 82  1  0  0  0  0
 45 46  1  0  0  0  0
 45 50  1  0  0  0  0
 46 47  1  0  0  0  0
 46 83  1  0  0  0  0
 46 84  1  0  0  0  0
 47 48  1  0  0  0  0
 47 85  1  0  0  0  0
 47 86  1  0  0  0  0
 48 49  1  0  0  0  0
 49 50  1  0  0  0  0
 49 87  1  0  0  0  0
 49 88  1  0  0  0  0
 50 89  1  0  0  0  0
 50 90  1  0  0  0  0
M  END
$$$$
