
 OpenBabel05112615533D

 50 52  0  0  0  0  0  0  0  0999 V2000
    1.8531   -0.1765    1.1686 O   0  0  0  0  0  0  0  0  0  0  0  0
    2.3597   -0.1187    0.0513 C   0  0  0  0  0  0  0  0  0  0  0  0
    2.3413   -1.2019   -0.8171 N   0  0  0  0  0  0  0  0  0  0  0  0
    1.5664   -2.3862   -0.4940 C   0  0  0  0  0  0  0  0  0  0  0  0
    2.0975   -3.6535   -1.1677 C   0  0  0  0  0  0  0  0  0  0  0  0
    3.5309   -3.9734   -0.8110 C   0  0  0  0  0  0  0  0  0  0  0  0
    3.9130   -4.1463    0.5292 C   0  0  0  0  0  0  0  0  0  0  0  0
    5.2387   -4.4284    0.8553 C   0  0  0  0  0  0  0  0  0  0  0  0
    6.1818   -4.5476   -0.1536 C   0  0  0  0  0  0  0  0  0  0  0  0
    7.4556   -4.8183    0.1550 F   0  0  0  0  0  0  0  0  0  0  0  0
    5.8234   -4.3908   -1.4903 C   0  0  0  0  0  0  0  0  0  0  0  0
    4.4981   -4.1053   -1.8191 C   0  0  0  0  0  0  0  0  0  0  0  0
    3.0324    1.1196   -0.4402 C   0  0  0  0  0  0  0  0  0  0  0  0
    4.1558    1.0313   -1.2850 C   0  0  0  0  0  0  0  0  0  0  0  0
    4.7939    2.1797   -1.7836 C   0  0  0  0  0  0  0  0  0  0  0  0
    5.9507    2.0355   -2.5655 N   0  0  0  0  0  0  0  0  0  0  0  0
    6.2170    3.0260   -3.6202 C   0  0  0  0  0  0  0  0  0  0  0  0
    7.1011    4.1675   -3.1709 C   0  0  0  0  0  0  0  0  0  0  0  0
    8.0433    4.0059   -2.1402 C   0  0  0  0  0  0  0  0  0  0  0  0
    8.8635    5.0669   -1.7652 C   0  0  0  0  0  0  0  0  0  0  0  0
    9.7787    4.9395   -0.7627 O   0  0  0  0  0  0  0  0  0  0  0  0
    8.7793    6.2974   -2.4072 C   0  0  0  0  0  0  0  0  0  0  0  0
    7.8695    6.4692   -3.4482 C   0  0  0  0  0  0  0  0  0  0  0  0
    7.0469    5.4068   -3.8276 C   0  0  0  0  0  0  0  0  0  0  0  0
    6.1678    5.5659   -4.8640 O   0  0  0  0  0  0  0  0  0  0  0  0
    4.3180    3.4263   -1.3628 C   0  0  0  0  0  0  0  0  0  0  0  0
    3.2234    3.5333   -0.5005 C   0  0  0  0  0  0  0  0  0  0  0  0
    2.5780    2.3846   -0.0480 C   0  0  0  0  0  0  0  0  0  0  0  0
    1.4844    2.5234    0.7590 O   0  0  0  0  0  0  0  0  0  0  0  0
    2.6680   -1.0821   -1.7665 H   0  0  0  0  0  0  0  0  0  0  0  0
    0.5413   -2.1951   -0.8301 H   0  0  0  0  0  0  0  0  0  0  0  0
    1.5267   -2.5146    0.5935 H   0  0  0  0  0  0  0  0  0  0  0  0
    1.9998   -3.5464   -2.2554 H   0  0  0  0  0  0  0  0  0  0  0  0
    1.4715   -4.5081   -0.8833 H   0  0  0  0  0  0  0  0  0  0  0  0
    3.1840   -4.0502    1.3319 H   0  0  0  0  0  0  0  0  0  0  0  0
    5.5410   -4.5529    1.8918 H   0  0  0  0  0  0  0  0  0  0  0  0
    6.5786   -4.4915   -2.2634 H   0  0  0  0  0  0  0  0  0  0  0  0
    4.2263   -3.9844   -2.8653 H   0  0  0  0  0  0  0  0  0  0  0  0
    4.5525    0.0539   -1.5459 H   0  0  0  0  0  0  0  0  0  0  0  0
    6.0556    1.0899   -2.9212 H   0  0  0  0  0  0  0  0  0  0  0  0
    5.2705    3.3867   -4.0423 H   0  0  0  0  0  0  0  0  0  0  0  0
    6.7454    2.5134   -4.4341 H   0  0  0  0  0  0  0  0  0  0  0  0
    8.1215    3.0474   -1.6328 H   0  0  0  0  0  0  0  0  0  0  0  0
    9.7059    4.0427   -0.3953 H   0  0  0  0  0  0  0  0  0  0  0  0
    9.4230    7.1151   -2.0983 H   0  0  0  0  0  0  0  0  0  0  0  0
    7.8206    7.4306   -3.9498 H   0  0  0  0  0  0  0  0  0  0  0  0
    6.2553    6.4687   -5.2134 H   0  0  0  0  0  0  0  0  0  0  0  0
    4.8047    4.3454   -1.6788 H   0  0  0  0  0  0  0  0  0  0  0  0
    2.8955    4.5213   -0.1907 H   0  0  0  0  0  0  0  0  0  0  0  0
    1.3681    3.4541    1.0061 H   0  0  0  0  0  0  0  0  0  0  0  0
  1  2  2  0  0  0  0
  2  3  1  0  0  0  0
  2 13  1  0  0  0  0
  3  4  1  0  0  0  0
  3 30  1  0  0  0  0
  4  5  1  0  0  0  0
  4 31  1  0  0  0  0
  4 32  1  0  0  0  0
  5  6  1  0  0  0  0
  5 33  1  0  0  0  0
  5 34  1  0  0  0  0
  6  7  1  0  0  0  0
  6 12  2  0  0  0  0
  7  8  2  0  0  0  0
  7 35  1  0  0  0  0
  8  9  1  0  0  0  0
  8 36  1  0  0  0  0
  9 10  1  0  0  0  0
  9 11  2  0  0  0  0
 11 12  1  0  0  0  0
 11 37  1  0  0  0  0
 12 38  1  0  0  0  0
 13 14  1  0  0  0  0
 13 28  2  0  0  0  0
 14 15  2  0  0  0  0
 14 39  1  0  0  0  0
 15 16  1  0  0  0  0
 15 26  1  0  0  0  0
 16 17  1  0  0  0  0
 16 40  1  0  0  0  0
 17 18  1  0  0  0  0
 17 41  1  0  0  0  0
 17 42  1  0  0  0  0
 18 19  1  0  0  0  0
 18 24  2  0  0  0  0
 19 20  2  0  0  0  0
 19 43  1  0  0  0  0
 20 21  1  0  0  0  0
 20 22  1  0  0  0  0
 21 44  1  0  0  0  0
 22 23  2  0  0  0  0
 22 45  1  0  0  0  0
 23 24  1  0  0  0  0
 23 46  1  0  0  0  0
 24 25  1  0  0  0  0
 25 47  1  0  0  0  0
 26 27  2  0  0  0  0
 26 48  1  0  0  0  0
 27 28  1  0  0  0  0
 27 49  1  0  0  0  0
 28 29  1  0  0  0  0
 29 50  1  0  0  0  0
M  END
$$$$
