
 OpenBabel05112615533D

 48 51  0  0  0  0  0  0  0  0999 V2000
   -0.2712    1.6172   -0.5152 N   0  0  0  0  0  0  0  0  0  0  0  0
    0.0250    3.1223   -1.2002 S   0  0  0  0  0  0  0  0  0  0  0  0
    0.9813    2.9209   -2.2609 O   0  0  0  0  0  0  0  0  0  0  0  0
   -1.2776    3.7027   -1.4203 O   0  0  0  0  0  0  0  0  0  0  0  0
    0.8203    3.9747    0.1306 C   0  0  0  0  0  0  0  0  0  0  0  0
    1.9919    3.4484    0.6678 C   0  0  0  0  0  0  0  0  0  0  0  0
    2.6056    4.0872    1.7457 C   0  0  0  0  0  0  0  0  0  0  0  0
    2.0733    5.2591    2.2969 C   0  0  0  0  0  0  0  0  0  0  0  0
    2.6826    5.9537    3.3634 N   0  0  0  0  0  0  0  0  0  0  0  0
    3.8150    5.5679    4.0733 C   0  0  0  0  0  0  0  0  0  0  0  0
    4.4253    4.5158    3.9416 O   0  0  0  0  0  0  0  0  0  0  0  0
    4.2585    6.5639    5.0648 C   0  0  0  0  0  0  0  0  0  0  0  0
    5.3427    6.4211    5.9615 C   0  0  0  0  0  0  0  0  0  0  0  0
    5.4270    7.6003    6.6812 C   0  0  0  0  0  0  0  0  0  0  0  0
    6.4531    7.9948    7.6641 C   0  0  0  0  0  0  0  0  0  0  0  0
    6.9487    9.3069    7.7202 C   0  0  0  0  0  0  0  0  0  0  0  0
    7.7709    9.7233    8.7711 C   0  0  0  0  0  0  0  0  0  0  0  0
    8.1879    8.8029    9.7260 C   0  0  0  0  0  0  0  0  0  0  0  0
    9.1612    9.3225   11.0447 Cl  0  0  0  0  0  0  0  0  0  0  0  0
    7.8082    7.4678    9.6212 C   0  0  0  0  0  0  0  0  0  0  0  0
    6.9404    7.0658    8.5971 C   0  0  0  0  0  0  0  0  0  0  0  0
    4.3409    8.3660    6.2361 N   0  0  0  0  0  0  0  0  0  0  0  0
    3.8613    9.6290    6.6920 C   0  0  0  0  0  0  0  0  0  0  0  0
    3.2230   10.4749    5.7730 C   0  0  0  0  0  0  0  0  0  0  0  0
    2.8036   11.7467    6.1632 C   0  0  0  0  0  0  0  0  0  0  0  0
    3.0085   12.1782    7.4722 C   0  0  0  0  0  0  0  0  0  0  0  0
    3.6149   11.3325    8.3988 C   0  0  0  0  0  0  0  0  0  0  0  0
    4.0214   10.0520    8.0182 C   0  0  0  0  0  0  0  0  0  0  0  0
    3.6816    7.7653    5.1984 N   0  0  0  0  0  0  0  0  0  0  0  0
    0.8908    5.7798    1.7449 C   0  0  0  0  0  0  0  0  0  0  0  0
    0.2617    5.1397    0.6663 C   0  0  0  0  0  0  0  0  0  0  0  0
    0.0164    0.8858   -1.1664 H   0  0  0  0  0  0  0  0  0  0  0  0
   -1.2406    1.5474   -0.2141 H   0  0  0  0  0  0  0  0  0  0  0  0
    2.4300    2.5406    0.2596 H   0  0  0  0  0  0  0  0  0  0  0  0
    3.5159    3.6371    2.1293 H   0  0  0  0  0  0  0  0  0  0  0  0
    2.2812    6.8350    3.6636 H   0  0  0  0  0  0  0  0  0  0  0  0
    6.0052    5.5676    6.0272 H   0  0  0  0  0  0  0  0  0  0  0  0
    6.6510   10.0471    6.9795 H   0  0  0  0  0  0  0  0  0  0  0  0
    8.0588   10.7687    8.8455 H   0  0  0  0  0  0  0  0  0  0  0  0
    8.1615    6.7395   10.3474 H   0  0  0  0  0  0  0  0  0  0  0  0
    6.6302    6.0238    8.5592 H   0  0  0  0  0  0  0  0  0  0  0  0
    3.0868   10.1716    4.7365 H   0  0  0  0  0  0  0  0  0  0  0  0
    2.3275   12.4040    5.4404 H   0  0  0  0  0  0  0  0  0  0  0  0
    2.6874   13.1723    7.7725 H   0  0  0  0  0  0  0  0  0  0  0  0
    3.7705   11.6689    9.4214 H   0  0  0  0  0  0  0  0  0  0  0  0
    4.4485    9.4050    8.7796 H   0  0  0  0  0  0  0  0  0  0  0  0
    0.4369    6.6838    2.1474 H   0  0  0  0  0  0  0  0  0  0  0  0
   -0.6596    5.5495    0.2555 H   0  0  0  0  0  0  0  0  0  0  0  0
  1  2  1  0  0  0  0
  1 32  1  0  0  0  0
  1 33  1  0  0  0  0
  2  3  2  0  0  0  0
  2  4  2  0  0  0  0
  2  5  1  0  0  0  0
  5  6  1  0  0  0  0
  5 31  2  0  0  0  0
  6  7  2  0  0  0  0
  6 34  1  0  0  0  0
  7  8  1  0  0  0  0
  7 35  1  0  0  0  0
  8  9  1  0  0  0  0
  8 30  2  0  0  0  0
  9 10  1  0  0  0  0
  9 36  1  0  0  0  0
 10 11  2  0  0  0  0
 10 12  1  0  0  0  0
 12 13  1  0  0  0  0
 12 29  2  0  0  0  0
 13 14  2  0  0  0  0
 13 37  1  0  0  0  0
 14 15  1  0  0  0  0
 14 22  1  0  0  0  0
 15 16  1  0  0  0  0
 15 21  2  0  0  0  0
 16 17  2  0  0  0  0
 16 38  1  0  0  0  0
 17 18  1  0  0  0  0
 17 39  1  0  0  0  0
 18 19  1  0  0  0  0
 18 20  2  0  0  0  0
 20 21  1  0  0  0  0
 20 40  1  0  0  0  0
 21 41  1  0  0  0  0
 22 23  1  0  0  0  0
 22 29  1  0  0  0  0
 23 24  1  0  0  0  0
 23 28  2  0  0  0  0
 24 25  2  0  0  0  0
 24 42  1  0  0  0  0
 25 26  1  0  0  0  0
 25 43  1  0  0  0  0
 26 27  2  0  0  0  0
 26 44  1  0  0  0  0
 27 28  1  0  0  0  0
 27 45  1  0  0  0  0
 28 46  1  0  0  0  0
 30 31  1  0  0  0  0
 30 47  1  0  0  0  0
 31 48  1  0  0  0  0
M  END
$$$$
