
 OpenBabel05112615523D

 47 49  0  0  0  0  0  0  0  0999 V2000
    1.1001    2.6821   -4.6201 O   0  0  0  0  0  0  0  0  0  0  0  0
    1.7540    1.6544   -4.6974 C   0  0  0  0  0  0  0  0  0  0  0  0
    1.6471    0.7877   -5.7242 O   0  0  0  0  0  0  0  0  0  0  0  0
    2.6795    1.2049   -3.6283 C   0  0  0  0  0  0  0  0  0  0  0  0
    2.3796    1.5517   -2.3114 C   0  0  0  0  0  0  0  0  0  0  0  0
    3.2261    1.1490   -1.2833 C   0  0  0  0  0  0  0  0  0  0  0  0
    4.3651    0.3820   -1.5670 C   0  0  0  0  0  0  0  0  0  0  0  0
    5.1725    0.0459   -0.5134 O   0  0  0  0  0  0  0  0  0  0  0  0
    4.6980   -0.0018   -2.8842 C   0  0  0  0  0  0  0  0  0  0  0  0
    5.7448   -0.8630   -3.2516 N   0  0  0  0  0  0  0  0  0  0  0  0
    6.3773   -1.7834   -2.2728 C   0  0  0  0  0  0  0  0  0  0  0  0
    5.5640   -3.0302   -1.9395 C   0  0  0  0  0  0  0  0  0  0  0  0
    4.2451   -3.2378   -2.3772 C   0  0  0  0  0  0  0  0  0  0  0  0
    3.5967   -4.4605   -2.1812 C   0  0  0  0  0  0  0  0  0  0  0  0
    4.2508   -5.4987   -1.5267 C   0  0  0  0  0  0  0  0  0  0  0  0
    5.5352   -5.2993   -1.0268 C   0  0  0  0  0  0  0  0  0  0  0  0
    6.1732   -4.0713   -1.2223 C   0  0  0  0  0  0  0  0  0  0  0  0
    7.4326   -3.8810   -0.7225 O   0  0  0  0  0  0  0  0  0  0  0  0
    6.6635   -0.3588   -4.3051 C   0  0  0  0  0  0  0  0  0  0  0  0
    6.8255   -1.3120   -5.4809 C   0  0  0  0  0  0  0  0  0  0  0  0
    6.1947   -2.5648   -5.5381 C   0  0  0  0  0  0  0  0  0  0  0  0
    6.4577   -3.4524   -6.5782 C   0  0  0  0  0  0  0  0  0  0  0  0
    5.9035   -4.6983   -6.5917 O   0  0  0  0  0  0  0  0  0  0  0  0
    7.3085   -3.1016   -7.6146 C   0  0  0  0  0  0  0  0  0  0  0  0
    7.9115   -1.8456   -7.6075 C   0  0  0  0  0  0  0  0  0  0  0  0
    7.6709   -0.9667   -6.5463 C   0  0  0  0  0  0  0  0  0  0  0  0
    8.2726    0.2614   -6.5351 O   0  0  0  0  0  0  0  0  0  0  0  0
    3.8380    0.4607   -3.9066 C   0  0  0  0  0  0  0  0  0  0  0  0
    2.0945   -0.0707   -5.6011 H   0  0  0  0  0  0  0  0  0  0  0  0
    1.4882    2.1351   -2.0853 H   0  0  0  0  0  0  0  0  0  0  0  0
    2.9817    1.4340   -0.2636 H   0  0  0  0  0  0  0  0  0  0  0  0
    4.8533    0.4782    0.2937 H   0  0  0  0  0  0  0  0  0  0  0  0
    6.7324   -1.2722   -1.3751 H   0  0  0  0  0  0  0  0  0  0  0  0
    7.2938   -2.1721   -2.7404 H   0  0  0  0  0  0  0  0  0  0  0  0
    3.7111   -2.4575   -2.9096 H   0  0  0  0  0  0  0  0  0  0  0  0
    2.5862   -4.6020   -2.5561 H   0  0  0  0  0  0  0  0  0  0  0  0
    3.7585   -6.4597   -1.4034 H   0  0  0  0  0  0  0  0  0  0  0  0
    6.0312   -6.1141   -0.5084 H   0  0  0  0  0  0  0  0  0  0  0  0
    7.6366   -4.6124   -0.1158 H   0  0  0  0  0  0  0  0  0  0  0  0
    7.6522   -0.1909   -3.8566 H   0  0  0  0  0  0  0  0  0  0  0  0
    6.3405    0.6157   -4.6934 H   0  0  0  0  0  0  0  0  0  0  0  0
    5.5042   -2.8581   -4.7588 H   0  0  0  0  0  0  0  0  0  0  0  0
    5.5151   -4.8632   -5.7147 H   0  0  0  0  0  0  0  0  0  0  0  0
    7.5074   -3.8067   -8.4163 H   0  0  0  0  0  0  0  0  0  0  0  0
    8.5764   -1.5792   -8.4232 H   0  0  0  0  0  0  0  0  0  0  0  0
    8.7676    0.3721   -7.3648 H   0  0  0  0  0  0  0  0  0  0  0  0
    4.0792    0.2165   -4.9383 H   0  0  0  0  0  0  0  0  0  0  0  0
  1  2  2  0  0  0  0
  2  3  1  0  0  0  0
  2  4  1  0  0  0  0
  3 29  1  0  0  0  0
  4  5  1  0  0  0  0
  4 28  2  0  0  0  0
  5  6  2  0  0  0  0
  5 30  1  0  0  0  0
  6  7  1  0  0  0  0
  6 31  1  0  0  0  0
  7  8  1  0  0  0  0
  7  9  2  0  0  0  0
  8 32  1  0  0  0  0
  9 10  1  0  0  0  0
  9 28  1  0  0  0  0
 10 11  1  0  0  0  0
 10 19  1  0  0  0  0
 11 12  1  0  0  0  0
 11 33  1  0  0  0  0
 11 34  1  0  0  0  0
 12 13  1  0  0  0  0
 12 17  2  0  0  0  0
 13 14  2  0  0  0  0
 13 35  1  0  0  0  0
 14 15  1  0  0  0  0
 14 36  1  0  0  0  0
 15 16  2  0  0  0  0
 15 37  1  0  0  0  0
 16 17  1  0  0  0  0
 16 38  1  0  0  0  0
 17 18  1  0  0  0  0
 18 39  1  0  0  0  0
 19 20  1  0  0  0  0
 19 40  1  0  0  0  0
 19 41  1  0  0  0  0
 20 21  1  0  0  0  0
 20 26  2  0  0  0  0
 21 22  2  0  0  0  0
 21 42  1  0  0  0  0
 22 23  1  0  0  0  0
 22 24  1  0  0  0  0
 23 43  1  0  0  0  0
 24 25  2  0  0  0  0
 24 44  1  0  0  0  0
 25 26  1  0  0  0  0
 25 45  1  0  0  0  0
 26 27  1  0  0  0  0
 27 46  1  0  0  0  0
 28 47  1  0  0  0  0
M  END
$$$$
