
 OpenBabel05112615523D

 18 18  0  0  0  0  0  0  0  0999 V2000
    1.7369   -1.4587    0.1921 N   0  0  0  0  0  0  0  0  0  0  0  0
    0.5261   -0.7683    0.0083 C   0  0  0  0  0  0  0  0  0  0  0  0
   -0.6912   -1.4597    0.0353 C   0  0  0  0  0  0  0  0  0  0  0  0
   -1.9011   -0.7513    0.0043 C   0  0  0  0  0  0  0  0  0  0  0  0
   -3.2285   -1.4215   -0.0367 C   0  0  0  0  0  0  0  0  0  0  0  0
   -4.2064   -0.8947   -0.5464 O   0  0  0  0  0  0  0  0  0  0  0  0
   -3.2813   -2.6282    0.5601 O   0  0  0  0  0  0  0  0  0  0  0  0
   -1.8882    0.6502   -0.0337 C   0  0  0  0  0  0  0  0  0  0  0  0
   -0.6815    1.3492   -0.0242 C   0  0  0  0  0  0  0  0  0  0  0  0
    0.5125    0.6362    0.0117 C   0  0  0  0  0  0  0  0  0  0  0  0
    1.7165    1.2922    0.0146 O   0  0  0  0  0  0  0  0  0  0  0  0
    1.7785   -2.3724   -0.2437 H   0  0  0  0  0  0  0  0  0  0  0  0
    2.5254   -0.8607   -0.0620 H   0  0  0  0  0  0  0  0  0  0  0  0
   -0.6714   -2.5436    0.0516 H   0  0  0  0  0  0  0  0  0  0  0  0
   -2.4888   -2.8927    1.0616 H   0  0  0  0  0  0  0  0  0  0  0  0
   -2.8271    1.2032   -0.0685 H   0  0  0  0  0  0  0  0  0  0  0  0
   -0.6943    2.4344   -0.0453 H   0  0  0  0  0  0  0  0  0  0  0  0
    1.5476    2.2485    0.0402 H   0  0  0  0  0  0  0  0  0  0  0  0
  1  2  1  0  0  0  0
  1 12  1  0  0  0  0
  1 13  1  0  0  0  0
  2  3  1  0  0  0  0
  2 10  2  0  0  0  0
  3  4  2  0  0  0  0
  3 14  1  0  0  0  0
  4  5  1  0  0  0  0
  4  8  1  0  0  0  0
  5  6  2  0  0  0  0
  5  7  1  0  0  0  0
  7 15  1  0  0  0  0
  8  9  2  0  0  0  0
  8 16  1  0  0  0  0
  9 10  1  0  0  0  0
  9 17  1  0  0  0  0
 10 11  1  0  0  0  0
 11 18  1  0  0  0  0
M  END
$$$$
