
 OpenBabel05112615533D

 49 52  0  0  0  0  0  0  0  0999 V2000
    1.0499   -0.2031    0.3787 C   0  0  0  0  0  0  0  0  0  0  0  0
    2.3894    0.0875   -0.0109 O   0  0  0  0  0  0  0  0  0  0  0  0
    2.9795    1.1340    0.6446 C   0  0  0  0  0  0  0  0  0  0  0  0
    2.6540    1.5557    1.9246 C   0  0  0  0  0  0  0  0  0  0  0  0
    3.3381    2.6271    2.4922 C   0  0  0  0  0  0  0  0  0  0  0  0
    2.9726    3.0216    3.7508 O   0  0  0  0  0  0  0  0  0  0  0  0
    4.3695    3.2795    1.7919 C   0  0  0  0  0  0  0  0  0  0  0  0
    5.0882    4.4374    2.4103 C   0  0  0  0  0  0  0  0  0  0  0  0
    4.8528    4.8534    3.5397 O   0  0  0  0  0  0  0  0  0  0  0  0
    6.1268    5.1054    1.5907 C   0  0  0  0  0  0  0  0  0  0  0  0
    6.8677    6.2745    2.0720 C   0  0  0  0  0  0  0  0  0  0  0  0
    8.0616    6.1056    2.7853 C   0  0  0  0  0  0  0  0  0  0  0  0
    8.8183    7.2144    3.1694 C   0  0  0  0  0  0  0  0  0  0  0  0
    8.3781    8.4990    2.8498 C   0  0  0  0  0  0  0  0  0  0  0  0
    7.1750    8.6693    2.1664 C   0  0  0  0  0  0  0  0  0  0  0  0
    6.6282   10.2563    1.7851 Cl  0  0  0  0  0  0  0  0  0  0  0  0
    6.4172    7.5680    1.7741 C   0  0  0  0  0  0  0  0  0  0  0  0
    6.3878    4.6000    0.3778 C   0  0  0  0  0  0  0  0  0  0  0  0
    5.8168    3.4776   -0.1995 N   0  0  0  0  0  0  0  0  0  0  0  0
    6.1504    3.0292   -1.5819 C   0  0  0  0  0  0  0  0  0  0  0  0
    7.6256    3.2223   -1.9748 C   0  0  0  0  0  0  0  0  0  0  0  0
    7.9350    2.6446   -3.3388 C   0  0  0  0  0  0  0  0  0  0  0  0
    7.8725    3.4483   -4.4846 C   0  0  0  0  0  0  0  0  0  0  0  0
    8.1652    2.9143   -5.7416 C   0  0  0  0  0  0  0  0  0  0  0  0
    8.5118    1.5705   -5.8654 C   0  0  0  0  0  0  0  0  0  0  0  0
    8.5656    0.7593   -4.7324 C   0  0  0  0  0  0  0  0  0  0  0  0
    8.2782    1.2924   -3.4756 C   0  0  0  0  0  0  0  0  0  0  0  0
    4.7427    2.8438    0.4905 C   0  0  0  0  0  0  0  0  0  0  0  0
    4.0100    1.7702   -0.0565 C   0  0  0  0  0  0  0  0  0  0  0  0
    0.6669   -0.9814   -0.2850 H   0  0  0  0  0  0  0  0  0  0  0  0
    0.4137    0.6820    0.2668 H   0  0  0  0  0  0  0  0  0  0  0  0
    1.0026   -0.5940    1.3997 H   0  0  0  0  0  0  0  0  0  0  0  0
    1.8862    1.0506    2.4990 H   0  0  0  0  0  0  0  0  0  0  0  0
    2.2709    2.4559    4.1032 H   0  0  0  0  0  0  0  0  0  0  0  0
    8.4080    5.1069    3.0466 H   0  0  0  0  0  0  0  0  0  0  0  0
    9.7467    7.0764    3.7148 H   0  0  0  0  0  0  0  0  0  0  0  0
    8.9735    9.3608    3.1398 H   0  0  0  0  0  0  0  0  0  0  0  0
    5.4815    7.7102    1.2418 H   0  0  0  0  0  0  0  0  0  0  0  0
    7.1371    5.0928   -0.2326 H   0  0  0  0  0  0  0  0  0  0  0  0
    5.4954    3.5497   -2.2921 H   0  0  0  0  0  0  0  0  0  0  0  0
    5.9679    1.9562   -1.6927 H   0  0  0  0  0  0  0  0  0  0  0  0
    8.2754    2.7489   -1.2275 H   0  0  0  0  0  0  0  0  0  0  0  0
    7.9005    4.2829   -1.9880 H   0  0  0  0  0  0  0  0  0  0  0  0
    7.6055    4.5010   -4.4086 H   0  0  0  0  0  0  0  0  0  0  0  0
    8.1270    3.5475   -6.6241 H   0  0  0  0  0  0  0  0  0  0  0  0
    8.7418    1.1554   -6.8434 H   0  0  0  0  0  0  0  0  0  0  0  0
    8.8342   -0.2892   -4.8301 H   0  0  0  0  0  0  0  0  0  0  0  0
    8.3308    0.6459   -2.6020 H   0  0  0  0  0  0  0  0  0  0  0  0
    4.2045    1.3899   -1.0537 H   0  0  0  0  0  0  0  0  0  0  0  0
  1  2  1  0  0  0  0
  1 30  1  0  0  0  0
  1 31  1  0  0  0  0
  1 32  1  0  0  0  0
  2  3  1  0  0  0  0
  3  4  1  0  0  0  0
  3 29  2  0  0  0  0
  4  5  2  0  0  0  0
  4 33  1  0  0  0  0
  5  6  1  0  0  0  0
  5  7  1  0  0  0  0
  6 34  1  0  0  0  0
  7  8  1  0  0  0  0
  7 28  2  0  0  0  0
  8  9  2  0  0  0  0
  8 10  1  0  0  0  0
 10 11  1  0  0  0  0
 10 18  2  0  0  0  0
 11 12  1  0  0  0  0
 11 17  2  0  0  0  0
 12 13  2  0  0  0  0
 12 35  1  0  0  0  0
 13 14  1  0  0  0  0
 13 36  1  0  0  0  0
 14 15  2  0  0  0  0
 14 37  1  0  0  0  0
 15 16  1  0  0  0  0
 15 17  1  0  0  0  0
 17 38  1  0  0  0  0
 18 19  1  0  0  0  0
 18 39  1  0  0  0  0
 19 20  1  0  0  0  0
 19 28  1  0  0  0  0
 20 21  1  0  0  0  0
 20 40  1  0  0  0  0
 20 41  1  0  0  0  0
 21 22  1  0  0  0  0
 21 42  1  0  0  0  0
 21 43  1  0  0  0  0
 22 23  1  0  0  0  0
 22 27  2  0  0  0  0
 23 24  2  0  0  0  0
 23 44  1  0  0  0  0
 24 25  1  0  0  0  0
 24 45  1  0  0  0  0
 25 26  2  0  0  0  0
 25 46  1  0  0  0  0
 26 27  1  0  0  0  0
 26 47  1  0  0  0  0
 27 48  1  0  0  0  0
 28 29  1  0  0  0  0
 29 49  1  0  0  0  0
M  END
$$$$
