
 OpenBabel05112615523D

 31 34  0  0  0  0  0  0  0  0999 V2000
   -1.1644    0.3750   -2.3135 Br  0  0  0  0  0  0  0  0  0  0  0  0
    0.4752    1.3125   -2.4164 C   0  0  0  0  0  0  0  0  0  0  0  0
    0.8966    1.8285   -3.6395 C   0  0  0  0  0  0  0  0  0  0  0  0
    2.1077    2.5116   -3.7127 C   0  0  0  0  0  0  0  0  0  0  0  0
    2.8884    2.6693   -2.5658 C   0  0  0  0  0  0  0  0  0  0  0  0
    2.4738    2.1542   -1.3295 C   0  0  0  0  0  0  0  0  0  0  0  0
    3.2211    2.3646   -0.1560 N   0  0  0  0  0  0  0  0  0  0  0  0
    4.6299    2.4472   -0.0310 C   0  0  0  0  0  0  0  0  0  0  0  0
    5.4018    1.8503   -0.9578 N   0  0  0  0  0  0  0  0  0  0  0  0
    6.7225    1.9597   -0.8004 C   0  0  0  0  0  0  0  0  0  0  0  0
    7.3501    2.6174    0.1808 N   0  0  0  0  0  0  0  0  0  0  0  0
    6.5791    3.2335    1.0791 C   0  0  0  0  0  0  0  0  0  0  0  0
    7.2096    3.9842    2.0677 C   0  0  0  0  0  0  0  0  0  0  0  0
    6.4193    4.6962    2.9732 C   0  0  0  0  0  0  0  0  0  0  0  0
    6.7197    5.5625    3.9939 N   0  0  0  0  0  0  0  0  0  0  0  0
    5.5391    6.0092    4.5206 C   0  0  0  0  0  0  0  0  0  0  0  0
    4.5043    5.4536    3.9358 N   0  0  0  0  0  0  0  0  0  0  0  0
    5.0335    4.6507    2.9606 C   0  0  0  0  0  0  0  0  0  0  0  0
    4.3924    3.8652    2.0001 C   0  0  0  0  0  0  0  0  0  0  0  0
    5.1756    3.1742    1.0386 C   0  0  0  0  0  0  0  0  0  0  0  0
    1.2478    1.4805   -1.2653 C   0  0  0  0  0  0  0  0  0  0  0  0
    0.2928    1.7083   -4.5338 H   0  0  0  0  0  0  0  0  0  0  0  0
    2.4466    2.9280   -4.6575 H   0  0  0  0  0  0  0  0  0  0  0  0
    3.8237    3.2197   -2.6402 H   0  0  0  0  0  0  0  0  0  0  0  0
    2.8077    1.9674    0.6789 H   0  0  0  0  0  0  0  0  0  0  0  0
    7.3454    1.4746   -1.5443 H   0  0  0  0  0  0  0  0  0  0  0  0
    8.2936    4.0394    2.0973 H   0  0  0  0  0  0  0  0  0  0  0  0
    7.6419    5.8523    4.2802 H   0  0  0  0  0  0  0  0  0  0  0  0
    5.4977    6.7392    5.3182 H   0  0  0  0  0  0  0  0  0  0  0  0
    3.3098    3.8504    1.9817 H   0  0  0  0  0  0  0  0  0  0  0  0
    0.8978    1.0755   -0.3204 H   0  0  0  0  0  0  0  0  0  0  0  0
  1  2  1  0  0  0  0
  2  3  1  0  0  0  0
  2 21  2  0  0  0  0
  3  4  2  0  0  0  0
  3 22  1  0  0  0  0
  4  5  1  0  0  0  0
  4 23  1  0  0  0  0
  5  6  2  0  0  0  0
  5 24  1  0  0  0  0
  6  7  1  0  0  0  0
  6 21  1  0  0  0  0
  7  8  1  0  0  0  0
  7 25  1  0  0  0  0
  8  9  1  0  0  0  0
  8 20  2  0  0  0  0
  9 10  2  0  0  0  0
 10 11  1  0  0  0  0
 10 26  1  0  0  0  0
 11 12  2  0  0  0  0
 12 13  1  0  0  0  0
 12 20  1  0  0  0  0
 13 14  2  0  0  0  0
 13 27  1  0  0  0  0
 14 15  1  0  0  0  0
 14 18  1  0  0  0  0
 15 16  1  0  0  0  0
 15 28  1  0  0  0  0
 16 17  2  0  0  0  0
 16 29  1  0  0  0  0
 17 18  1  0  0  0  0
 18 19  2  0  0  0  0
 19 20  1  0  0  0  0
 19 30  1  0  0  0  0
 21 31  1  0  0  0  0
M  END
$$$$
