
 OpenBabel05112615533D

 52 56  0  0  0  0  0  0  0  0999 V2000
    7.5249   -4.2203   -0.4206 O   0  0  0  0  0  0  0  0  0  0  0  0
    7.2371   -4.7615   -1.4969 C   0  0  0  0  0  0  0  0  0  0  0  0
    6.5929   -6.0335   -1.5446 N   0  0  0  0  0  0  0  0  0  0  0  0
    6.2016   -7.0156   -0.7077 C   0  0  0  0  0  0  0  0  0  0  0  0
    6.1969   -7.3270    0.7177 N   0  0  0  0  0  0  0  0  0  0  0  0
    5.6217   -8.6438    0.9592 C   0  0  0  0  0  0  0  0  0  0  0  0
    5.4207   -9.4647    2.0630 C   0  0  0  0  0  0  0  0  0  0  0  0
    4.9264  -10.8042    1.8882 C   0  0  0  0  0  0  0  0  0  0  0  0
    4.6369  -11.3336    0.6306 C   0  0  0  0  0  0  0  0  0  0  0  0
    4.8168  -10.5113   -0.4586 C   0  0  0  0  0  0  0  0  0  0  0  0
    5.3063   -9.2040   -0.2596 C   0  0  0  0  0  0  0  0  0  0  0  0
    5.5834   -8.2386   -1.2208 N   0  0  0  0  0  0  0  0  0  0  0  0
    5.3467   -8.7571   -2.5273 C   0  0  0  0  0  0  0  0  0  0  0  0
    5.7970   -7.6720   -3.3785 C   0  0  0  0  0  0  0  0  0  0  0  0
    5.8672   -7.9519   -4.8092 C   0  0  0  0  0  0  0  0  0  0  0  0
    6.3935   -6.6121   -5.1553 C   0  0  0  0  0  0  0  0  0  0  0  0
    6.6525   -6.5279   -6.5805 C   0  0  0  0  0  0  0  0  0  0  0  0
    6.5879   -5.1361   -6.7362 O   0  0  0  0  0  0  0  0  0  0  0  0
    7.6965   -4.7386   -7.4057 C   0  0  0  0  0  0  0  0  0  0  0  0
    7.8743   -5.3439   -8.6696 C   0  0  0  0  0  0  0  0  0  0  0  0
    8.7005   -4.7655   -9.5944 C   0  0  0  0  0  0  0  0  0  0  0  0
    9.2614   -3.5513   -9.2153 C   0  0  0  0  0  0  0  0  0  0  0  0
    9.1111   -2.9929   -7.8880 C   0  0  0  0  0  0  0  0  0  0  0  0
    8.3962   -3.6542   -6.8649 C   0  0  0  0  0  0  0  0  0  0  0  0
    8.1661   -3.2385   -5.3769 C   0  0  0  0  0  0  0  0  0  0  0  0
    8.0875   -4.1572   -4.2133 C   0  0  0  0  0  0  0  0  0  0  0  0
    7.5215   -3.8296   -2.9167 C   0  0  0  0  0  0  0  0  0  0  0  0
    7.2425   -2.4565   -2.8353 C   0  0  0  0  0  0  0  0  0  0  0  0
    7.4562   -1.5880   -3.9421 C   0  0  0  0  0  0  0  0  0  0  0  0
    7.8728   -1.9409   -5.1920 N   0  0  0  0  0  0  0  0  0  0  0  0
    5.9003   -6.6069    1.3619 H   0  0  0  0  0  0  0  0  0  0  0  0
    5.6336   -9.1393    3.0714 H   0  0  0  0  0  0  0  0  0  0  0  0
    4.7633  -11.4623    2.7421 H   0  0  0  0  0  0  0  0  0  0  0  0
    4.2859  -12.3565    0.4832 H   0  0  0  0  0  0  0  0  0  0  0  0
    4.5899  -10.9034   -1.4433 H   0  0  0  0  0  0  0  0  0  0  0  0
    4.2918   -8.9653   -2.7198 H   0  0  0  0  0  0  0  0  0  0  0  0
    5.9495   -9.6396   -2.7378 H   0  0  0  0  0  0  0  0  0  0  0  0
    6.8385   -7.4950   -3.0741 H   0  0  0  0  0  0  0  0  0  0  0  0
    5.1492   -6.8033   -3.1790 H   0  0  0  0  0  0  0  0  0  0  0  0
    4.8955   -8.1621   -5.2569 H   0  0  0  0  0  0  0  0  0  0  0  0
    6.5893   -8.7401   -5.0311 H   0  0  0  0  0  0  0  0  0  0  0  0
    7.3495   -6.4835   -4.6425 H   0  0  0  0  0  0  0  0  0  0  0  0
    5.7482   -5.7862   -4.7998 H   0  0  0  0  0  0  0  0  0  0  0  0
    5.8795   -7.0036   -7.1805 H   0  0  0  0  0  0  0  0  0  0  0  0
    7.6381   -6.9918   -6.7494 H   0  0  0  0  0  0  0  0  0  0  0  0
    7.3027   -6.2300   -8.9482 H   0  0  0  0  0  0  0  0  0  0  0  0
    8.7855   -5.1922  -10.5769 H   0  0  0  0  0  0  0  0  0  0  0  0
    9.7487   -2.9759  -10.0046 H   0  0  0  0  0  0  0  0  0  0  0  0
    9.5345   -2.0030   -7.7314 H   0  0  0  0  0  0  0  0  0  0  0  0
    8.5594   -5.1188   -4.3535 H   0  0  0  0  0  0  0  0  0  0  0  0
    6.8741   -2.0121   -1.9148 H   0  0  0  0  0  0  0  0  0  0  0  0
    7.2488   -0.5219   -3.8488 H   0  0  0  0  0  0  0  0  0  0  0  0
  1  2  2  0  0  0  0
  2  3  1  0  0  0  0
  2 27  1  0  0  0  0
  3  4  2  0  0  0  0
  4  5  1  0  0  0  0
  4 12  1  0  0  0  0
  5  6  1  0  0  0  0
  5 31  1  0  0  0  0
  6  7  1  0  0  0  0
  6 11  2  0  0  0  0
  7  8  2  0  0  0  0
  7 32  1  0  0  0  0
  8  9  1  0  0  0  0
  8 33  1  0  0  0  0
  9 10  2  0  0  0  0
  9 34  1  0  0  0  0
 10 11  1  0  0  0  0
 10 35  1  0  0  0  0
 11 12  1  0  0  0  0
 12 13  1  0  0  0  0
 13 14  1  0  0  0  0
 13 36  1  0  0  0  0
 13 37  1  0  0  0  0
 14 15  1  0  0  0  0
 14 38  1  0  0  0  0
 14 39  1  0  0  0  0
 15 16  1  0  0  0  0
 15 40  1  0  0  0  0
 15 41  1  0  0  0  0
 16 17  1  0  0  0  0
 16 42  1  0  0  0  0
 16 43  1  0  0  0  0
 17 18  1  0  0  0  0
 17 44  1  0  0  0  0
 17 45  1  0  0  0  0
 18 19  1  0  0  0  0
 19 20  1  0  0  0  0
 19 24  2  0  0  0  0
 20 21  2  0  0  0  0
 20 46  1  0  0  0  0
 21 22  1  0  0  0  0
 21 47  1  0  0  0  0
 22 23  2  0  0  0  0
 22 48  1  0  0  0  0
 23 24  1  0  0  0  0
 23 49  1  0  0  0  0
 24 25  1  0  0  0  0
 25 26  1  0  0  0  0
 25 30  2  0  0  0  0
 26 27  2  0  0  0  0
 26 50  1  0  0  0  0
 27 28  1  0  0  0  0
 28 29  2  0  0  0  0
 28 51  1  0  0  0  0
 29 30  1  0  0  0  0
 29 52  1  0  0  0  0
M  END
$$$$
