
 OpenBabel05112615533D

 43 45  0  0  0  0  0  0  0  0999 V2000
    3.6802    0.1485   -1.6010 C   0  0  0  0  0  0  0  0  0  0  0  0
    2.7957    0.5718   -0.4504 C   0  0  0  0  0  0  0  0  0  0  0  0
    1.5702    0.4844   -0.5394 O   0  0  0  0  0  0  0  0  0  0  0  0
    3.4547    1.0612    0.6722 N   0  0  0  0  0  0  0  0  0  0  0  0
    2.7014    1.4896    1.8407 C   0  0  0  0  0  0  0  0  0  0  0  0
    4.8255    1.0592    0.6691 N   0  0  0  0  0  0  0  0  0  0  0  0
    5.3343    1.5596    1.6902 N   0  0  0  0  0  0  0  0  0  0  0  0
    6.7400    1.4635    1.6849 C   0  0  0  0  0  0  0  0  0  0  0  0
    7.5251    1.5351    0.5335 C   0  0  0  0  0  0  0  0  0  0  0  0
    8.9213    1.4693    0.6189 C   0  0  0  0  0  0  0  0  0  0  0  0
    9.5702    1.3067    1.8349 C   0  0  0  0  0  0  0  0  0  0  0  0
   10.9046    1.2658    1.8342 N   0  0  0  0  0  0  0  0  0  0  0  0
   11.4940    1.1102    3.0224 C   0  0  0  0  0  0  0  0  0  0  0  0
   10.8733    0.9632    4.1913 N   0  0  0  0  0  0  0  0  0  0  0  0
    9.5254    0.9912    4.1870 C   0  0  0  0  0  0  0  0  0  0  0  0
    8.8344    0.7987    5.4188 N   0  0  0  0  0  0  0  0  0  0  0  0
    9.4657    0.8494    6.6872 C   0  0  0  0  0  0  0  0  0  0  0  0
   10.3138    1.9179    7.0004 C   0  0  0  0  0  0  0  0  0  0  0  0
   11.0233    1.9446    8.2013 C   0  0  0  0  0  0  0  0  0  0  0  0
   10.8879    0.9027    9.1096 C   0  0  0  0  0  0  0  0  0  0  0  0
   10.0181   -0.1600    8.8430 C   0  0  0  0  0  0  0  0  0  0  0  0
    9.8919   -1.2930    9.8201 C   0  0  0  0  0  0  0  0  0  0  0  0
    9.2965   -0.1745    7.6331 C   0  0  0  0  0  0  0  0  0  0  0  0
    8.8004    1.1999    2.9992 C   0  0  0  0  0  0  0  0  0  0  0  0
    7.3904    1.3151    2.9151 C   0  0  0  0  0  0  0  0  0  0  0  0
    3.0603   -0.2503   -2.4096 H   0  0  0  0  0  0  0  0  0  0  0  0
    4.3714   -0.6364   -1.2832 H   0  0  0  0  0  0  0  0  0  0  0  0
    4.2338    1.0105   -1.9836 H   0  0  0  0  0  0  0  0  0  0  0  0
    1.6240    1.4182    1.6741 H   0  0  0  0  0  0  0  0  0  0  0  0
    2.9483    2.5305    2.0688 H   0  0  0  0  0  0  0  0  0  0  0  0
    2.9637    0.8479    2.6875 H   0  0  0  0  0  0  0  0  0  0  0  0
    7.0658    1.6549   -0.4449 H   0  0  0  0  0  0  0  0  0  0  0  0
    9.5145    1.5468   -0.2894 H   0  0  0  0  0  0  0  0  0  0  0  0
   12.5786    1.1041    3.0376 H   0  0  0  0  0  0  0  0  0  0  0  0
    8.1943    0.0158    5.3354 H   0  0  0  0  0  0  0  0  0  0  0  0
   10.4420    2.7298    6.2907 H   0  0  0  0  0  0  0  0  0  0  0  0
   11.6985    2.7704    8.4036 H   0  0  0  0  0  0  0  0  0  0  0  0
   11.4746    0.9233   10.0241 H   0  0  0  0  0  0  0  0  0  0  0  0
   10.5197   -1.1322   10.7022 H   0  0  0  0  0  0  0  0  0  0  0  0
   10.2116   -2.2298    9.3523 H   0  0  0  0  0  0  0  0  0  0  0  0
    8.8563   -1.3913   10.1611 H   0  0  0  0  0  0  0  0  0  0  0  0
    8.6382   -1.0108    7.4226 H   0  0  0  0  0  0  0  0  0  0  0  0
    6.7884    1.3096    3.8212 H   0  0  0  0  0  0  0  0  0  0  0  0
  1  2  1  0  0  0  0
  1 26  1  0  0  0  0
  1 27  1  0  0  0  0
  1 28  1  0  0  0  0
  2  3  2  0  0  0  0
  2  4  1  0  0  0  0
  4  5  1  0  0  0  0
  4  6  1  0  0  0  0
  5 29  1  0  0  0  0
  5 30  1  0  0  0  0
  5 31  1  0  0  0  0
  6  7  2  0  0  0  0
  7  8  1  0  0  0  0
  8  9  1  0  0  0  0
  8 25  2  0  0  0  0
  9 10  2  0  0  0  0
  9 32  1  0  0  0  0
 10 11  1  0  0  0  0
 10 33  1  0  0  0  0
 11 12  1  0  0  0  0
 11 24  2  0  0  0  0
 12 13  2  0  0  0  0
 13 14  1  0  0  0  0
 13 34  1  0  0  0  0
 14 15  2  0  0  0  0
 15 16  1  0  0  0  0
 15 24  1  0  0  0  0
 16 17  1  0  0  0  0
 16 35  1  0  0  0  0
 17 18  1  0  0  0  0
 17 23  2  0  0  0  0
 18 19  2  0  0  0  0
 18 36  1  0  0  0  0
 19 20  1  0  0  0  0
 19 37  1  0  0  0  0
 20 21  2  0  0  0  0
 20 38  1  0  0  0  0
 21 22  1  0  0  0  0
 21 23  1  0  0  0  0
 22 39  1  0  0  0  0
 22 40  1  0  0  0  0
 22 41  1  0  0  0  0
 23 42  1  0  0  0  0
 24 25  1  0  0  0  0
 25 43  1  0  0  0  0
M  END
$$$$
