
 OpenBabel05112615533D

 53 55  0  0  0  0  0  0  0  0999 V2000
    2.7588   -0.9283    0.7514 O   0  0  0  0  0  0  0  0  0  0  0  0
    2.1647   -0.1488    0.0153 C   0  0  0  0  0  0  0  0  0  0  0  0
    0.8072    0.0938    0.1264 N   0  0  0  0  0  0  0  0  0  0  0  0
   -0.0179   -0.6043    1.0929 C   0  0  0  0  0  0  0  0  0  0  0  0
    0.3326   -0.2837    2.5465 C   0  0  0  0  0  0  0  0  0  0  0  0
    0.2384    1.2154    2.8428 C   0  0  0  0  0  0  0  0  0  0  0  0
    0.6274    1.5704    4.2570 C   0  0  0  0  0  0  0  0  0  0  0  0
    1.9234    1.3124    4.7272 C   0  0  0  0  0  0  0  0  0  0  0  0
    2.2942    1.6776    6.0214 C   0  0  0  0  0  0  0  0  0  0  0  0
    1.3765    2.3123    6.8557 C   0  0  0  0  0  0  0  0  0  0  0  0
    0.0871    2.5795    6.3986 C   0  0  0  0  0  0  0  0  0  0  0  0
   -0.2865    2.2078    5.1057 C   0  0  0  0  0  0  0  0  0  0  0  0
    2.8837    0.6278   -1.0352 C   0  0  0  0  0  0  0  0  0  0  0  0
    2.4766    1.9381   -1.3381 C   0  0  0  0  0  0  0  0  0  0  0  0
    3.1632    2.7177   -2.2774 C   0  0  0  0  0  0  0  0  0  0  0  0
    2.6625    3.9970   -2.5535 N   0  0  0  0  0  0  0  0  0  0  0  0
    3.6078    4.9882   -3.0745 C   0  0  0  0  0  0  0  0  0  0  0  0
    3.0938    6.3804   -2.8099 C   0  0  0  0  0  0  0  0  0  0  0  0
    2.8041    6.7712   -1.4893 C   0  0  0  0  0  0  0  0  0  0  0  0
    2.4158    8.0788   -1.2154 C   0  0  0  0  0  0  0  0  0  0  0  0
    2.1408    8.4856    0.0560 O   0  0  0  0  0  0  0  0  0  0  0  0
    2.3088    9.0162   -2.2344 C   0  0  0  0  0  0  0  0  0  0  0  0
    2.5800    8.6412   -3.5500 C   0  0  0  0  0  0  0  0  0  0  0  0
    2.9680    7.3299   -3.8297 C   0  0  0  0  0  0  0  0  0  0  0  0
    3.2387    6.9610   -5.1176 O   0  0  0  0  0  0  0  0  0  0  0  0
    4.2493    2.1457   -2.9520 C   0  0  0  0  0  0  0  0  0  0  0  0
    4.6734    0.8492   -2.6532 C   0  0  0  0  0  0  0  0  0  0  0  0
    3.9911    0.0919   -1.7017 C   0  0  0  0  0  0  0  0  0  0  0  0
    4.3970   -1.1908   -1.4689 O   0  0  0  0  0  0  0  0  0  0  0  0
    0.3452    0.6544   -0.5762 H   0  0  0  0  0  0  0  0  0  0  0  0
    0.0865   -1.6798    0.9122 H   0  0  0  0  0  0  0  0  0  0  0  0
   -1.0576   -0.3269    0.8859 H   0  0  0  0  0  0  0  0  0  0  0  0
    1.3376   -0.6545    2.7746 H   0  0  0  0  0  0  0  0  0  0  0  0
   -0.3492   -0.8350    3.2061 H   0  0  0  0  0  0  0  0  0  0  0  0
   -0.7863    1.5521    2.6418 H   0  0  0  0  0  0  0  0  0  0  0  0
    0.8874    1.7889    2.1700 H   0  0  0  0  0  0  0  0  0  0  0  0
    2.6558    0.8289    4.0824 H   0  0  0  0  0  0  0  0  0  0  0  0
    3.3007    1.4702    6.3746 H   0  0  0  0  0  0  0  0  0  0  0  0
    1.6686    2.6039    7.8612 H   0  0  0  0  0  0  0  0  0  0  0  0
   -0.6268    3.0776    7.0472 H   0  0  0  0  0  0  0  0  0  0  0  0
   -1.2945    2.4285    4.7630 H   0  0  0  0  0  0  0  0  0  0  0  0
    1.6459    2.3951   -0.8044 H   0  0  0  0  0  0  0  0  0  0  0  0
    1.8655    3.9265   -3.1866 H   0  0  0  0  0  0  0  0  0  0  0  0
    3.7721    4.8103   -4.1427 H   0  0  0  0  0  0  0  0  0  0  0  0
    4.5803    4.9043   -2.5691 H   0  0  0  0  0  0  0  0  0  0  0  0
    2.8968    6.0397   -0.6897 H   0  0  0  0  0  0  0  0  0  0  0  0
    2.2509    7.7263    0.6529 H   0  0  0  0  0  0  0  0  0  0  0  0
    2.0193   10.0372   -2.0023 H   0  0  0  0  0  0  0  0  0  0  0  0
    2.4963    9.3853   -4.3356 H   0  0  0  0  0  0  0  0  0  0  0  0
    3.0363    7.7097   -5.7039 H   0  0  0  0  0  0  0  0  0  0  0  0
    4.7843    2.6948   -3.7195 H   0  0  0  0  0  0  0  0  0  0  0  0
    5.5345    0.4467   -3.1779 H   0  0  0  0  0  0  0  0  0  0  0  0
    5.1618   -1.4066   -2.0239 H   0  0  0  0  0  0  0  0  0  0  0  0
  1  2  2  0  0  0  0
  2  3  1  0  0  0  0
  2 13  1  0  0  0  0
  3  4  1  0  0  0  0
  3 30  1  0  0  0  0
  4  5  1  0  0  0  0
  4 31  1  0  0  0  0
  4 32  1  0  0  0  0
  5  6  1  0  0  0  0
  5 33  1  0  0  0  0
  5 34  1  0  0  0  0
  6  7  1  0  0  0  0
  6 35  1  0  0  0  0
  6 36  1  0  0  0  0
  7  8  1  0  0  0  0
  7 12  2  0  0  0  0
  8  9  2  0  0  0  0
  8 37  1  0  0  0  0
  9 10  1  0  0  0  0
  9 38  1  0  0  0  0
 10 11  2  0  0  0  0
 10 39  1  0  0  0  0
 11 12  1  0  0  0  0
 11 40  1  0  0  0  0
 12 41  1  0  0  0  0
 13 14  1  0  0  0  0
 13 28  2  0  0  0  0
 14 15  2  0  0  0  0
 14 42  1  0  0  0  0
 15 16  1  0  0  0  0
 15 26  1  0  0  0  0
 16 17  1  0  0  0  0
 16 43  1  0  0  0  0
 17 18  1  0  0  0  0
 17 44  1  0  0  0  0
 17 45  1  0  0  0  0
 18 19  1  0  0  0  0
 18 24  2  0  0  0  0
 19 20  2  0  0  0  0
 19 46  1  0  0  0  0
 20 21  1  0  0  0  0
 20 22  1  0  0  0  0
 21 47  1  0  0  0  0
 22 23  2  0  0  0  0
 22 48  1  0  0  0  0
 23 24  1  0  0  0  0
 23 49  1  0  0  0  0
 24 25  1  0  0  0  0
 25 50  1  0  0  0  0
 26 27  2  0  0  0  0
 26 51  1  0  0  0  0
 27 28  1  0  0  0  0
 27 52  1  0  0  0  0
 28 29  1  0  0  0  0
 29 53  1  0  0  0  0
M  END
$$$$
