
 OpenBabel05112615533D

 51 54  0  0  0  0  0  0  0  0999 V2000
   -1.3997   -0.7789    3.1153 C   0  0  0  0  0  0  0  0  0  0  0  0
   -0.6125   -1.4046    2.0801 N   0  0  0  0  0  0  0  0  0  0  0  0
    0.7323   -1.3002    1.8934 C   0  0  0  0  0  0  0  0  0  0  0  0
    1.0467   -2.0998    0.8101 C   0  0  0  0  0  0  0  0  0  0  0  0
    2.3897   -2.2981    0.2869 C   0  0  0  0  0  0  0  0  0  0  0  0
    2.6358   -3.1315   -0.7956 C   0  0  0  0  0  0  0  0  0  0  0  0
    3.9564   -3.2933   -1.2207 C   0  0  0  0  0  0  0  0  0  0  0  0
    4.3132   -4.1810   -2.3608 C   0  0  0  0  0  0  0  0  0  0  0  0
    5.4513   -4.6464   -2.3925 O   0  0  0  0  0  0  0  0  0  0  0  0
    3.3313   -4.3786   -3.3051 N   0  0  0  0  0  0  0  0  0  0  0  0
    3.5993   -5.1598   -4.3024 C   0  0  0  0  0  0  0  0  0  0  0  0
    4.7661   -5.8703   -4.5534 N   0  0  0  0  0  0  0  0  0  0  0  0
    4.6724   -6.5397   -5.7647 C   0  0  0  0  0  0  0  0  0  0  0  0
    5.5912   -7.3396   -6.4035 C   0  0  0  0  0  0  0  0  0  0  0  0
    5.2094   -7.9015   -7.6233 C   0  0  0  0  0  0  0  0  0  0  0  0
    3.9337   -7.6489   -8.1617 C   0  0  0  0  0  0  0  0  0  0  0  0
    3.0082   -6.8335   -7.4927 C   0  0  0  0  0  0  0  0  0  0  0  0
    3.3872   -6.2860   -6.2862 C   0  0  0  0  0  0  0  0  0  0  0  0
    2.7283   -5.4581   -5.3698 N   0  0  0  0  0  0  0  0  0  0  0  0
    1.4146   -4.8744   -5.5835 C   0  0  0  0  0  0  0  0  0  0  0  0
    0.2822   -5.6622   -4.8701 C   0  0  0  0  0  0  0  0  0  0  0  0
    0.4704   -5.7261   -3.3524 C   0  0  0  0  0  0  0  0  0  0  0  0
   -1.0662   -5.0099   -5.2028 C   0  0  0  0  0  0  0  0  0  0  0  0
    0.2143   -7.0081   -5.3611 O   0  0  0  0  0  0  0  0  0  0  0  0
    4.9850   -2.6268   -0.5575 C   0  0  0  0  0  0  0  0  0  0  0  0
    4.6469   -1.8114    0.5033 C   0  0  0  0  0  0  0  0  0  0  0  0
    3.3831   -1.6340    0.9332 N   0  0  0  0  0  0  0  0  0  0  0  0
   -0.2067   -2.6276    0.4161 C   0  0  0  0  0  0  0  0  0  0  0  0
   -1.2126   -2.2071    1.1805 N   0  0  0  0  0  0  0  0  0  0  0  0
   -0.7730   -0.0905    3.6858 H   0  0  0  0  0  0  0  0  0  0  0  0
   -1.7873   -1.5634    3.7707 H   0  0  0  0  0  0  0  0  0  0  0  0
   -2.2219   -0.2324    2.6460 H   0  0  0  0  0  0  0  0  0  0  0  0
    1.3542   -0.6890    2.5351 H   0  0  0  0  0  0  0  0  0  0  0  0
    1.8327   -3.6626   -1.2902 H   0  0  0  0  0  0  0  0  0  0  0  0
    5.5779   -5.8064   -3.9570 H   0  0  0  0  0  0  0  0  0  0  0  0
    6.5712   -7.5261   -5.9808 H   0  0  0  0  0  0  0  0  0  0  0  0
    5.9063   -8.5401   -8.1619 H   0  0  0  0  0  0  0  0  0  0  0  0
    3.6632   -8.0989   -9.1161 H   0  0  0  0  0  0  0  0  0  0  0  0
    2.0301   -6.6549   -7.9244 H   0  0  0  0  0  0  0  0  0  0  0  0
    1.1989   -4.8151   -6.6578 H   0  0  0  0  0  0  0  0  0  0  0  0
    1.4190   -3.8370   -5.2235 H   0  0  0  0  0  0  0  0  0  0  0  0
    0.6841   -4.7393   -2.9360 H   0  0  0  0  0  0  0  0  0  0  0  0
    1.2769   -6.4167   -3.0803 H   0  0  0  0  0  0  0  0  0  0  0  0
   -0.4274   -6.1101   -2.8556 H   0  0  0  0  0  0  0  0  0  0  0  0
   -1.0338   -3.9216   -5.0871 H   0  0  0  0  0  0  0  0  0  0  0  0
   -1.8629   -5.3940   -4.5552 H   0  0  0  0  0  0  0  0  0  0  0  0
   -1.3684   -5.2437   -6.2301 H   0  0  0  0  0  0  0  0  0  0  0  0
    1.0531   -7.4391   -5.1113 H   0  0  0  0  0  0  0  0  0  0  0  0
    6.0204   -2.7347   -0.8631 H   0  0  0  0  0  0  0  0  0  0  0  0
    5.4089   -1.2623    1.0510 H   0  0  0  0  0  0  0  0  0  0  0  0
   -0.4278   -3.3089   -0.3984 H   0  0  0  0  0  0  0  0  0  0  0  0
  1  2  1  0  0  0  0
  1 30  1  0  0  0  0
  1 31  1  0  0  0  0
  1 32  1  0  0  0  0
  2  3  1  0  0  0  0
  2 29  1  0  0  0  0
  3  4  2  0  0  0  0
  3 33  1  0  0  0  0
  4  5  1  0  0  0  0
  4 28  1  0  0  0  0
  5  6  1  0  0  0  0
  5 27  2  0  0  0  0
  6  7  2  0  0  0  0
  6 34  1  0  0  0  0
  7  8  1  0  0  0  0
  7 25  1  0  0  0  0
  8  9  2  0  0  0  0
  8 10  1  0  0  0  0
 10 11  2  0  0  0  0
 11 12  1  0  0  0  0
 11 19  1  0  0  0  0
 12 13  1  0  0  0  0
 12 35  1  0  0  0  0
 13 14  1  0  0  0  0
 13 18  2  0  0  0  0
 14 15  2  0  0  0  0
 14 36  1  0  0  0  0
 15 16  1  0  0  0  0
 15 37  1  0  0  0  0
 16 17  2  0  0  0  0
 16 38  1  0  0  0  0
 17 18  1  0  0  0  0
 17 39  1  0  0  0  0
 18 19  1  0  0  0  0
 19 20  1  0  0  0  0
 20 21  1  0  0  0  0
 20 40  1  0  0  0  0
 20 41  1  0  0  0  0
 21 22  1  0  0  0  0
 21 23  1  0  0  0  0
 21 24  1  0  0  0  0
 22 42  1  0  0  0  0
 22 43  1  0  0  0  0
 22 44  1  0  0  0  0
 23 45  1  0  0  0  0
 23 46  1  0  0  0  0
 23 47  1  0  0  0  0
 24 48  1  0  0  0  0
 25 26  2  0  0  0  0
 25 49  1  0  0  0  0
 26 27  1  0  0  0  0
 26 50  1  0  0  0  0
 28 29  2  0  0  0  0
 28 51  1  0  0  0  0
M  END
$$$$
