
 OpenBabel05112615523D

 58 61  0  0  0  0  0  0  0  0999 V2000
    2.3698   -1.4423   -0.7034 C   0  0  0  0  0  0  0  0  0  0  0  0
    2.1877   -0.0772   -0.3069 O   0  0  0  0  0  0  0  0  0  0  0  0
    2.9973    0.8248   -0.9589 C   0  0  0  0  0  0  0  0  0  0  0  0
    4.2108    0.4558   -1.5715 C   0  0  0  0  0  0  0  0  0  0  0  0
    5.0097    1.3620   -2.2559 C   0  0  0  0  0  0  0  0  0  0  0  0
    6.1531    0.9391   -2.8057 N   0  0  0  0  0  0  0  0  0  0  0  0
    6.8650    1.8519   -3.4746 C   0  0  0  0  0  0  0  0  0  0  0  0
    6.5468    3.1370   -3.6361 N   0  0  0  0  0  0  0  0  0  0  0  0
    5.4010    3.5561   -3.0621 C   0  0  0  0  0  0  0  0  0  0  0  0
    5.0342    4.9224   -3.1849 N   0  0  0  0  0  0  0  0  0  0  0  0
    5.6545    5.8257   -4.0705 C   0  0  0  0  0  0  0  0  0  0  0  0
    5.8344    5.4730   -5.4179 C   0  0  0  0  0  0  0  0  0  0  0  0
    6.5493    6.2948   -6.2830 C   0  0  0  0  0  0  0  0  0  0  0  0
    7.0833    7.4829   -5.8049 C   0  0  0  0  0  0  0  0  0  0  0  0
    7.8048    8.2434   -6.6403 F   0  0  0  0  0  0  0  0  0  0  0  0
    6.8841    7.8688   -4.4808 C   0  0  0  0  0  0  0  0  0  0  0  0
    7.5531    9.3411   -3.8887 Cl  0  0  0  0  0  0  0  0  0  0  0  0
    6.1602    7.0473   -3.6121 C   0  0  0  0  0  0  0  0  0  0  0  0
    4.5721    2.6792   -2.3558 C   0  0  0  0  0  0  0  0  0  0  0  0
    3.3585    3.0564   -1.7545 C   0  0  0  0  0  0  0  0  0  0  0  0
    2.6036    2.1712   -0.9812 C   0  0  0  0  0  0  0  0  0  0  0  0
    1.4778    2.6413   -0.2458 N   0  0  0  0  0  0  0  0  0  0  0  0
    1.2692    3.9777    0.0582 C   0  0  0  0  0  0  0  0  0  0  0  0
    2.0439    4.9007   -0.1894 O   0  0  0  0  0  0  0  0  0  0  0  0
    0.0076    4.2857    0.7796 C   0  0  0  0  0  0  0  0  0  0  0  0
   -0.4912    5.5254    0.6090 C   0  0  0  0  0  0  0  0  0  0  0  0
   -1.6349    6.1831    1.3230 C   0  0  0  0  0  0  0  0  0  0  0  0
   -1.8785    5.7204    2.6970 N   0  0  0  0  0  0  0  0  0  0  0  0
   -0.7750    6.1288    3.5914 C   0  0  0  0  0  0  0  0  0  0  0  0
   -1.0170    5.6520    5.0240 C   0  0  0  0  0  0  0  0  0  0  0  0
   -2.3379    6.1831    5.5642 C   0  0  0  0  0  0  0  0  0  0  0  0
   -3.4725    5.8445    4.6058 C   0  0  0  0  0  0  0  0  0  0  0  0
   -3.1509    6.2949    3.1802 C   0  0  0  0  0  0  0  0  0  0  0  0
    1.5812   -2.0454   -0.2456 H   0  0  0  0  0  0  0  0  0  0  0  0
    3.3275   -1.8376   -0.3455 H   0  0  0  0  0  0  0  0  0  0  0  0
    2.2865   -1.5547   -1.7919 H   0  0  0  0  0  0  0  0  0  0  0  0
    4.5869   -0.5609   -1.5156 H   0  0  0  0  0  0  0  0  0  0  0  0
    7.7953    1.5195   -3.9243 H   0  0  0  0  0  0  0  0  0  0  0  0
    4.8460    5.3175   -2.2656 H   0  0  0  0  0  0  0  0  0  0  0  0
    5.4326    4.5300   -5.7845 H   0  0  0  0  0  0  0  0  0  0  0  0
    6.7087    5.9992   -7.3144 H   0  0  0  0  0  0  0  0  0  0  0  0
    6.0307    7.3419   -2.5745 H   0  0  0  0  0  0  0  0  0  0  0  0
    3.0014    4.0654   -1.9291 H   0  0  0  0  0  0  0  0  0  0  0  0
    0.8886    1.9309    0.1729 H   0  0  0  0  0  0  0  0  0  0  0  0
   -0.4119    3.5695    1.4711 H   0  0  0  0  0  0  0  0  0  0  0  0
   -0.0070    6.1868   -0.1115 H   0  0  0  0  0  0  0  0  0  0  0  0
   -2.5256    6.0211    0.7035 H   0  0  0  0  0  0  0  0  0  0  0  0
   -1.4582    7.2711    1.3254 H   0  0  0  0  0  0  0  0  0  0  0  0
   -0.6500    7.2201    3.5853 H   0  0  0  0  0  0  0  0  0  0  0  0
    0.1736    5.6952    3.2576 H   0  0  0  0  0  0  0  0  0  0  0  0
   -0.1942    5.9828    5.6675 H   0  0  0  0  0  0  0  0  0  0  0  0
   -1.0234    4.5550    5.0498 H   0  0  0  0  0  0  0  0  0  0  0  0
   -2.2724    7.2714    5.6872 H   0  0  0  0  0  0  0  0  0  0  0  0
   -2.5393    5.7585    6.5535 H   0  0  0  0  0  0  0  0  0  0  0  0
   -4.3972    6.3249    4.9457 H   0  0  0  0  0  0  0  0  0  0  0  0
   -3.6506    4.7622    4.6166 H   0  0  0  0  0  0  0  0  0  0  0  0
   -3.1210    7.3929    3.1443 H   0  0  0  0  0  0  0  0  0  0  0  0
   -3.9733    5.9728    2.5299 H   0  0  0  0  0  0  0  0  0  0  0  0
  1  2  1  0  0  0  0
  1 34  1  0  0  0  0
  1 35  1  0  0  0  0
  1 36  1  0  0  0  0
  2  3  1  0  0  0  0
  3  4  1  0  0  0  0
  3 21  2  0  0  0  0
  4  5  2  0  0  0  0
  4 37  1  0  0  0  0
  5  6  1  0  0  0  0
  5 19  1  0  0  0  0
  6  7  2  0  0  0  0
  7  8  1  0  0  0  0
  7 38  1  0  0  0  0
  8  9  2  0  0  0  0
  9 10  1  0  0  0  0
  9 19  1  0  0  0  0
 10 11  1  0  0  0  0
 10 39  1  0  0  0  0
 11 12  1  0  0  0  0
 11 18  2  0  0  0  0
 12 13  2  0  0  0  0
 12 40  1  0  0  0  0
 13 14  1  0  0  0  0
 13 41  1  0  0  0  0
 14 15  1  0  0  0  0
 14 16  2  0  0  0  0
 16 17  1  0  0  0  0
 16 18  1  0  0  0  0
 18 42  1  0  0  0  0
 19 20  2  0  0  0  0
 20 21  1  0  0  0  0
 20 43  1  0  0  0  0
 21 22  1  0  0  0  0
 22 23  1  0  0  0  0
 22 44  1  0  0  0  0
 23 24  2  0  0  0  0
 23 25  1  0  0  0  0
 25 26  2  0  0  0  0
 25 45  1  0  0  0  0
 26 27  1  0  0  0  0
 26 46  1  0  0  0  0
 27 28  1  0  0  0  0
 27 47  1  0  0  0  0
 27 48  1  0  0  0  0
 28 29  1  0  0  0  0
 28 33  1  0  0  0  0
 29 30  1  0  0  0  0
 29 49  1  0  0  0  0
 29 50  1  0  0  0  0
 30 31  1  0  0  0  0
 30 51  1  0  0  0  0
 30 52  1  0  0  0  0
 31 32  1  0  0  0  0
 31 53  1  0  0  0  0
 31 54  1  0  0  0  0
 32 33  1  0  0  0  0
 32 55  1  0  0  0  0
 32 56  1  0  0  0  0
 33 57  1  0  0  0  0
 33 58  1  0  0  0  0
M  END
$$$$
