
 OpenBabel05112615523D

 22 22  0  0  0  0  0  0  0  0999 V2000
    1.0233    1.5758    0.7152 O   0  0  0  0  0  0  0  0  0  0  0  0
    2.2460    1.5676    0.7604 C   0  0  0  0  0  0  0  0  0  0  0  0
    3.0395    1.6703   -0.3502 N   0  0  0  0  0  0  0  0  0  0  0  0
    4.4091    1.6681   -0.3447 C   0  0  0  0  0  0  0  0  0  0  0  0
    5.1187    1.7846   -1.4748 C   0  0  0  0  0  0  0  0  0  0  0  0
    6.5863    1.8159   -1.4713 C   0  0  0  0  0  0  0  0  0  0  0  0
    7.3075    0.6181   -1.5671 C   0  0  0  0  0  0  0  0  0  0  0  0
    8.7017    0.6505   -1.5645 C   0  0  0  0  0  0  0  0  0  0  0  0
    9.4436   -0.4906   -1.6541 O   0  0  0  0  0  0  0  0  0  0  0  0
    9.3911    1.8550   -1.4716 C   0  0  0  0  0  0  0  0  0  0  0  0
    8.6825    3.0521   -1.3801 C   0  0  0  0  0  0  0  0  0  0  0  0
    7.2872    3.0281   -1.3789 C   0  0  0  0  0  0  0  0  0  0  0  0
    6.5865    4.2002   -1.2925 O   0  0  0  0  0  0  0  0  0  0  0  0
    2.8058    1.4730    1.7057 H   0  0  0  0  0  0  0  0  0  0  0  0
    2.5371    1.7716   -1.2248 H   0  0  0  0  0  0  0  0  0  0  0  0
    4.8970    1.5788    0.6237 H   0  0  0  0  0  0  0  0  0  0  0  0
    4.6481    1.9027   -2.4452 H   0  0  0  0  0  0  0  0  0  0  0  0
    6.7778   -0.3262   -1.6498 H   0  0  0  0  0  0  0  0  0  0  0  0
    8.8434   -1.2537   -1.7005 H   0  0  0  0  0  0  0  0  0  0  0  0
   10.4777    1.8594   -1.4734 H   0  0  0  0  0  0  0  0  0  0  0  0
    9.2317    3.9861   -1.3141 H   0  0  0  0  0  0  0  0  0  0  0  0
    7.2134    4.9371   -1.2136 H   0  0  0  0  0  0  0  0  0  0  0  0
  1  2  2  0  0  0  0
  2  3  1  0  0  0  0
  2 14  1  0  0  0  0
  3  4  1  0  0  0  0
  3 15  1  0  0  0  0
  4  5  2  0  0  0  0
  4 16  1  0  0  0  0
  5  6  1  0  0  0  0
  5 17  1  0  0  0  0
  6  7  1  0  0  0  0
  6 12  2  0  0  0  0
  7  8  2  0  0  0  0
  7 18  1  0  0  0  0
  8  9  1  0  0  0  0
  8 10  1  0  0  0  0
  9 19  1  0  0  0  0
 10 11  2  0  0  0  0
 10 20  1  0  0  0  0
 11 12  1  0  0  0  0
 11 21  1  0  0  0  0
 12 13  1  0  0  0  0
 13 22  1  0  0  0  0
M  END
$$$$
