
 OpenBabel05112615523D

 55 58  0  0  0  0  0  0  0  0999 V2000
    2.6984    0.8861    1.3550 C   0  0  0  0  0  0  0  0  0  0  0  0
    2.3666    0.0442    0.2555 O   0  0  0  0  0  0  0  0  0  0  0  0
    3.0381   -1.1377    0.1052 C   0  0  0  0  0  0  0  0  0  0  0  0
    4.2075   -1.4699    0.7968 C   0  0  0  0  0  0  0  0  0  0  0  0
    4.8221   -2.7075    0.6669 C   0  0  0  0  0  0  0  0  0  0  0  0
    5.9201   -2.9340    1.3893 N   0  0  0  0  0  0  0  0  0  0  0  0
    6.5001   -4.1245    1.2423 C   0  0  0  0  0  0  0  0  0  0  0  0
    6.0902   -5.0965    0.4208 N   0  0  0  0  0  0  0  0  0  0  0  0
    4.9843   -4.8681   -0.3076 C   0  0  0  0  0  0  0  0  0  0  0  0
    4.5251   -5.8697   -1.2090 N   0  0  0  0  0  0  0  0  0  0  0  0
    5.0514   -7.1728   -1.3722 C   0  0  0  0  0  0  0  0  0  0  0  0
    5.6453   -7.8814   -0.3188 C   0  0  0  0  0  0  0  0  0  0  0  0
    6.1768   -9.1563   -0.5051 C   0  0  0  0  0  0  0  0  0  0  0  0
    6.0731   -9.7634   -1.7471 C   0  0  0  0  0  0  0  0  0  0  0  0
    6.6036  -10.9828   -1.9180 F   0  0  0  0  0  0  0  0  0  0  0  0
    5.4221   -9.1131   -2.7915 C   0  0  0  0  0  0  0  0  0  0  0  0
    5.2504   -9.8777   -4.3254 Cl  0  0  0  0  0  0  0  0  0  0  0  0
    4.8974   -7.8292   -2.6034 C   0  0  0  0  0  0  0  0  0  0  0  0
    4.2735   -3.6563   -0.2035 C   0  0  0  0  0  0  0  0  0  0  0  0
    3.0933   -3.3353   -0.9094 C   0  0  0  0  0  0  0  0  0  0  0  0
    2.5073   -2.0747   -0.7895 C   0  0  0  0  0  0  0  0  0  0  0  0
    1.3903   -1.9031   -1.5616 O   0  0  0  0  0  0  0  0  0  0  0  0
    1.3397   -0.6700   -2.2835 C   0  0  0  0  0  0  0  0  0  0  0  0
    0.8181   -0.9288   -3.7016 C   0  0  0  0  0  0  0  0  0  0  0  0
   -0.5428   -1.6362   -3.6814 C   0  0  0  0  0  0  0  0  0  0  0  0
   -1.1494   -1.8531   -5.0092 N   0  0  0  0  0  0  0  0  0  0  0  0
   -1.4399   -0.6069   -5.7531 C   0  0  0  0  0  0  0  0  0  0  0  0
   -2.5663    0.2322   -5.1298 C   0  0  0  0  0  0  0  0  0  0  0  0
   -3.7802   -0.5241   -5.0371 O   0  0  0  0  0  0  0  0  0  0  0  0
   -3.5798   -1.7281   -4.2849 C   0  0  0  0  0  0  0  0  0  0  0  0
   -2.4367   -2.5838   -4.8680 C   0  0  0  0  0  0  0  0  0  0  0  0
    3.3630    1.6859    1.0145 H   0  0  0  0  0  0  0  0  0  0  0  0
    3.1363    0.3662    2.2117 H   0  0  0  0  0  0  0  0  0  0  0  0
    1.7700    1.3411    1.7132 H   0  0  0  0  0  0  0  0  0  0  0  0
    4.6896   -0.7625    1.4649 H   0  0  0  0  0  0  0  0  0  0  0  0
    7.3811   -4.3257    1.8360 H   0  0  0  0  0  0  0  0  0  0  0  0
    4.3324   -5.4357   -2.1068 H   0  0  0  0  0  0  0  0  0  0  0  0
    5.7134   -7.4396    0.6750 H   0  0  0  0  0  0  0  0  0  0  0  0
    6.6725   -9.6746    0.3112 H   0  0  0  0  0  0  0  0  0  0  0  0
    4.3885   -7.3393   -3.4276 H   0  0  0  0  0  0  0  0  0  0  0  0
    2.6211   -4.0627   -1.5654 H   0  0  0  0  0  0  0  0  0  0  0  0
    2.3220   -0.1883   -2.3653 H   0  0  0  0  0  0  0  0  0  0  0  0
    0.6548    0.0061   -1.7590 H   0  0  0  0  0  0  0  0  0  0  0  0
    1.5369   -1.5508   -4.2490 H   0  0  0  0  0  0  0  0  0  0  0  0
    0.7582    0.0382   -4.2107 H   0  0  0  0  0  0  0  0  0  0  0  0
   -1.2149   -1.0839   -3.0161 H   0  0  0  0  0  0  0  0  0  0  0  0
   -0.3942   -2.6241   -3.2263 H   0  0  0  0  0  0  0  0  0  0  0  0
   -1.7488   -0.8967   -6.7667 H   0  0  0  0  0  0  0  0  0  0  0  0
   -0.5390   -0.0019   -5.8896 H   0  0  0  0  0  0  0  0  0  0  0  0
   -2.7692    1.1028   -5.7617 H   0  0  0  0  0  0  0  0  0  0  0  0
   -2.2940    0.6070   -4.1367 H   0  0  0  0  0  0  0  0  0  0  0  0
   -4.5160   -2.2944   -4.3187 H   0  0  0  0  0  0  0  0  0  0  0  0
   -3.3989   -1.4675   -3.2362 H   0  0  0  0  0  0  0  0  0  0  0  0
   -2.7350   -2.9244   -5.8682 H   0  0  0  0  0  0  0  0  0  0  0  0
   -2.2999   -3.4908   -4.2673 H   0  0  0  0  0  0  0  0  0  0  0  0
  1  2  1  0  0  0  0
  1 32  1  0  0  0  0
  1 33  1  0  0  0  0
  1 34  1  0  0  0  0
  2  3  1  0  0  0  0
  3  4  1  0  0  0  0
  3 21  2  0  0  0  0
  4  5  2  0  0  0  0
  4 35  1  0  0  0  0
  5  6  1  0  0  0  0
  5 19  1  0  0  0  0
  6  7  2  0  0  0  0
  7  8  1  0  0  0  0
  7 36  1  0  0  0  0
  8  9  2  0  0  0  0
  9 10  1  0  0  0  0
  9 19  1  0  0  0  0
 10 11  1  0  0  0  0
 10 37  1  0  0  0  0
 11 12  1  0  0  0  0
 11 18  2  0  0  0  0
 12 13  2  0  0  0  0
 12 38  1  0  0  0  0
 13 14  1  0  0  0  0
 13 39  1  0  0  0  0
 14 15  1  0  0  0  0
 14 16  2  0  0  0  0
 16 17  1  0  0  0  0
 16 18  1  0  0  0  0
 18 40  1  0  0  0  0
 19 20  2  0  0  0  0
 20 21  1  0  0  0  0
 20 41  1  0  0  0  0
 21 22  1  0  0  0  0
 22 23  1  0  0  0  0
 23 24  1  0  0  0  0
 23 42  1  0  0  0  0
 23 43  1  0  0  0  0
 24 25  1  0  0  0  0
 24 44  1  0  0  0  0
 24 45  1  0  0  0  0
 25 26  1  0  0  0  0
 25 46  1  0  0  0  0
 25 47  1  0  0  0  0
 26 27  1  0  0  0  0
 26 31  1  0  0  0  0
 27 28  1  0  0  0  0
 27 48  1  0  0  0  0
 27 49  1  0  0  0  0
 28 29  1  0  0  0  0
 28 50  1  0  0  0  0
 28 51  1  0  0  0  0
 29 30  1  0  0  0  0
 30 31  1  0  0  0  0
 30 52  1  0  0  0  0
 30 53  1  0  0  0  0
 31 54  1  0  0  0  0
 31 55  1  0  0  0  0
M  END
$$$$
