
 OpenBabel05112615523D

 46 48  0  0  0  0  0  0  0  0999 V2000
    6.1101    4.6720    2.1828 O   0  0  0  0  0  0  0  0  0  0  0  0
    5.0606    4.0507    2.2426 C   0  0  0  0  0  0  0  0  0  0  0  0
    4.3125    4.0209    3.3669 O   0  0  0  0  0  0  0  0  0  0  0  0
    4.5268    3.2537    1.0964 C   0  0  0  0  0  0  0  0  0  0  0  0
    5.2651    3.2758   -0.1058 C   0  0  0  0  0  0  0  0  0  0  0  0
    4.9565    2.4399   -1.1896 C   0  0  0  0  0  0  0  0  0  0  0  0
    5.7661    2.3441   -2.3156 N   0  0  0  0  0  0  0  0  0  0  0  0
    6.0467    1.0191   -2.9001 C   0  0  0  0  0  0  0  0  0  0  0  0
    5.1902    0.5886   -4.0828 C   0  0  0  0  0  0  0  0  0  0  0  0
    4.1382    1.3454   -4.6213 C   0  0  0  0  0  0  0  0  0  0  0  0
    3.3059    0.8146   -5.6172 C   0  0  0  0  0  0  0  0  0  0  0  0
    3.5141   -0.4777   -6.0980 C   0  0  0  0  0  0  0  0  0  0  0  0
    4.5896   -1.2222   -5.6231 C   0  0  0  0  0  0  0  0  0  0  0  0
    5.4226   -0.6795   -4.6428 C   0  0  0  0  0  0  0  0  0  0  0  0
    6.4984   -1.4032   -4.2040 O   0  0  0  0  0  0  0  0  0  0  0  0
    6.4890    3.4987   -2.8775 C   0  0  0  0  0  0  0  0  0  0  0  0
    7.8878    3.8180   -2.3672 C   0  0  0  0  0  0  0  0  0  0  0  0
    8.5389    3.1432   -1.3257 C   0  0  0  0  0  0  0  0  0  0  0  0
    9.8127    3.5470   -0.8930 C   0  0  0  0  0  0  0  0  0  0  0  0
   10.4688    4.6177   -1.5075 C   0  0  0  0  0  0  0  0  0  0  0  0
    9.8475    5.2921   -2.5523 C   0  0  0  0  0  0  0  0  0  0  0  0
    8.5737    4.8937   -2.9663 C   0  0  0  0  0  0  0  0  0  0  0  0
    7.9597    5.5713   -3.9886 O   0  0  0  0  0  0  0  0  0  0  0  0
    3.7938    1.6598   -1.0614 C   0  0  0  0  0  0  0  0  0  0  0  0
    3.0002    1.6757    0.0911 C   0  0  0  0  0  0  0  0  0  0  0  0
    3.3858    2.4497    1.1778 C   0  0  0  0  0  0  0  0  0  0  0  0
    2.6431    2.4042    2.3301 O   0  0  0  0  0  0  0  0  0  0  0  0
    3.5121    3.4595    3.2657 H   0  0  0  0  0  0  0  0  0  0  0  0
    6.1405    3.9193   -0.1508 H   0  0  0  0  0  0  0  0  0  0  0  0
    5.9305    0.2538   -2.1196 H   0  0  0  0  0  0  0  0  0  0  0  0
    7.0999    0.9831   -3.2042 H   0  0  0  0  0  0  0  0  0  0  0  0
    3.9391    2.3495   -4.2536 H   0  0  0  0  0  0  0  0  0  0  0  0
    2.4807    1.4050   -6.0077 H   0  0  0  0  0  0  0  0  0  0  0  0
    2.8428   -0.9032   -6.8399 H   0  0  0  0  0  0  0  0  0  0  0  0
    4.7527   -2.2251   -6.0063 H   0  0  0  0  0  0  0  0  0  0  0  0
    6.7017   -2.0784   -4.8735 H   0  0  0  0  0  0  0  0  0  0  0  0
    5.8654    4.3948   -2.7623 H   0  0  0  0  0  0  0  0  0  0  0  0
    6.5824    3.3282   -3.9586 H   0  0  0  0  0  0  0  0  0  0  0  0
    8.0577    2.3176   -0.8107 H   0  0  0  0  0  0  0  0  0  0  0  0
   10.2956    3.0338   -0.0632 H   0  0  0  0  0  0  0  0  0  0  0  0
   11.4552    4.9242   -1.1639 H   0  0  0  0  0  0  0  0  0  0  0  0
   10.3604    6.1263   -3.0233 H   0  0  0  0  0  0  0  0  0  0  0  0
    8.5320    6.3088   -4.2656 H   0  0  0  0  0  0  0  0  0  0  0  0
    3.4684    1.0261   -1.8828 H   0  0  0  0  0  0  0  0  0  0  0  0
    2.1044    1.0622    0.1161 H   0  0  0  0  0  0  0  0  0  0  0  0
    1.9399    1.7358    2.2180 H   0  0  0  0  0  0  0  0  0  0  0  0
  1  2  2  0  0  0  0
  2  3  1  0  0  0  0
  2  4  1  0  0  0  0
  3 28  1  0  0  0  0
  4  5  1  0  0  0  0
  4 26  2  0  0  0  0
  5  6  2  0  0  0  0
  5 29  1  0  0  0  0
  6  7  1  0  0  0  0
  6 24  1  0  0  0  0
  7  8  1  0  0  0  0
  7 16  1  0  0  0  0
  8  9  1  0  0  0  0
  8 30  1  0  0  0  0
  8 31  1  0  0  0  0
  9 10  1  0  0  0  0
  9 14  2  0  0  0  0
 10 11  2  0  0  0  0
 10 32  1  0  0  0  0
 11 12  1  0  0  0  0
 11 33  1  0  0  0  0
 12 13  2  0  0  0  0
 12 34  1  0  0  0  0
 13 14  1  0  0  0  0
 13 35  1  0  0  0  0
 14 15  1  0  0  0  0
 15 36  1  0  0  0  0
 16 17  1  0  0  0  0
 16 37  1  0  0  0  0
 16 38  1  0  0  0  0
 17 18  1  0  0  0  0
 17 22  2  0  0  0  0
 18 19  2  0  0  0  0
 18 39  1  0  0  0  0
 19 20  1  0  0  0  0
 19 40  1  0  0  0  0
 20 21  2  0  0  0  0
 20 41  1  0  0  0  0
 21 22  1  0  0  0  0
 21 42  1  0  0  0  0
 22 23  1  0  0  0  0
 23 43  1  0  0  0  0
 24 25  2  0  0  0  0
 24 44  1  0  0  0  0
 25 26  1  0  0  0  0
 25 45  1  0  0  0  0
 26 27  1  0  0  0  0
 27 46  1  0  0  0  0
M  END
$$$$
