
 OpenBabel05112615523D

 33 34  0  0  0  0  0  0  0  0999 V2000
    3.1989   -0.4798    1.1481 O   0  0  0  0  0  0  0  0  0  0  0  0
    2.9596    0.4690    0.4195 C   0  0  0  0  0  0  0  0  0  0  0  0
    2.4615    1.6381    0.8765 O   0  0  0  0  0  0  0  0  0  0  0  0
    3.2723    0.4666   -1.0341 C   0  0  0  0  0  0  0  0  0  0  0  0
    4.2914   -0.3908   -1.4800 C   0  0  0  0  0  0  0  0  0  0  0  0
    4.6647   -0.4422   -2.8299 C   0  0  0  0  0  0  0  0  0  0  0  0
    5.6504   -1.3421   -3.2271 N   0  0  0  0  0  0  0  0  0  0  0  0
    6.4862   -1.0826   -4.4031 C   0  0  0  0  0  0  0  0  0  0  0  0
    6.3003   -2.1409   -5.4658 C   0  0  0  0  0  0  0  0  0  0  0  0
    5.0742   -2.8157   -5.6246 C   0  0  0  0  0  0  0  0  0  0  0  0
    4.9098   -3.7512   -6.6412 C   0  0  0  0  0  0  0  0  0  0  0  0
    3.7306   -4.4095   -6.8094 O   0  0  0  0  0  0  0  0  0  0  0  0
    5.9455   -4.0360   -7.5216 C   0  0  0  0  0  0  0  0  0  0  0  0
    7.1626   -3.3690   -7.3918 C   0  0  0  0  0  0  0  0  0  0  0  0
    7.3288   -2.4230   -6.3789 C   0  0  0  0  0  0  0  0  0  0  0  0
    8.5128   -1.7416   -6.2692 O   0  0  0  0  0  0  0  0  0  0  0  0
    3.9267    0.3264   -3.7395 C   0  0  0  0  0  0  0  0  0  0  0  0
    2.9007    1.1770   -3.3152 C   0  0  0  0  0  0  0  0  0  0  0  0
    2.5860    1.2539   -1.9628 C   0  0  0  0  0  0  0  0  0  0  0  0
    1.6023    2.1085   -1.5435 O   0  0  0  0  0  0  0  0  0  0  0  0
    2.2273    2.2502    0.1448 H   0  0  0  0  0  0  0  0  0  0  0  0
    4.8112   -1.0108   -0.7511 H   0  0  0  0  0  0  0  0  0  0  0  0
    6.1943   -1.7250   -2.4573 H   0  0  0  0  0  0  0  0  0  0  0  0
    7.5278   -1.0852   -4.0575 H   0  0  0  0  0  0  0  0  0  0  0  0
    6.3128   -0.0955   -4.8451 H   0  0  0  0  0  0  0  0  0  0  0  0
    4.2569   -2.6019   -4.9435 H   0  0  0  0  0  0  0  0  0  0  0  0
    3.1191   -4.1232   -6.1091 H   0  0  0  0  0  0  0  0  0  0  0  0
    5.8023   -4.7717   -8.3074 H   0  0  0  0  0  0  0  0  0  0  0  0
    7.9628   -3.5939   -8.0905 H   0  0  0  0  0  0  0  0  0  0  0  0
    9.1171   -2.0669   -6.9580 H   0  0  0  0  0  0  0  0  0  0  0  0
    4.1289    0.2653   -4.8063 H   0  0  0  0  0  0  0  0  0  0  0  0
    2.3668    1.7649   -4.0563 H   0  0  0  0  0  0  0  0  0  0  0  0
    1.0692    2.3690   -2.3185 H   0  0  0  0  0  0  0  0  0  0  0  0
  1  2  2  0  0  0  0
  2  3  1  0  0  0  0
  2  4  1  0  0  0  0
  3 21  1  0  0  0  0
  4  5  1  0  0  0  0
  4 19  2  0  0  0  0
  5  6  2  0  0  0  0
  5 22  1  0  0  0  0
  6  7  1  0  0  0  0
  6 17  1  0  0  0  0
  7  8  1  0  0  0  0
  7 23  1  0  0  0  0
  8  9  1  0  0  0  0
  8 24  1  0  0  0  0
  8 25  1  0  0  0  0
  9 10  1  0  0  0  0
  9 15  2  0  0  0  0
 10 11  2  0  0  0  0
 10 26  1  0  0  0  0
 11 12  1  0  0  0  0
 11 13  1  0  0  0  0
 12 27  1  0  0  0  0
 13 14  2  0  0  0  0
 13 28  1  0  0  0  0
 14 15  1  0  0  0  0
 14 29  1  0  0  0  0
 15 16  1  0  0  0  0
 16 30  1  0  0  0  0
 17 18  2  0  0  0  0
 17 31  1  0  0  0  0
 18 19  1  0  0  0  0
 18 32  1  0  0  0  0
 19 20  1  0  0  0  0
 20 33  1  0  0  0  0
M  END
$$$$
