
 OpenBabel05112615523D

 47 49  0  0  0  0  0  0  0  0999 V2000
    5.8253    2.5963    3.8601 O   0  0  0  0  0  0  0  0  0  0  0  0
    4.6867    2.3422    3.4952 C   0  0  0  0  0  0  0  0  0  0  0  0
    3.7121    2.0058    4.3679 O   0  0  0  0  0  0  0  0  0  0  0  0
    4.2811    2.3559    2.0554 C   0  0  0  0  0  0  0  0  0  0  0  0
    5.2647    2.7027    1.1057 C   0  0  0  0  0  0  0  0  0  0  0  0
    5.0189    2.6787   -0.2805 C   0  0  0  0  0  0  0  0  0  0  0  0
    6.0154    2.9854   -1.1951 N   0  0  0  0  0  0  0  0  0  0  0  0
    6.1196    2.3188   -2.5102 C   0  0  0  0  0  0  0  0  0  0  0  0
    6.9819    1.0642   -2.5488 C   0  0  0  0  0  0  0  0  0  0  0  0
    7.6030    0.5040   -1.4247 C   0  0  0  0  0  0  0  0  0  0  0  0
    8.4482   -0.6103   -1.5492 C   0  0  0  0  0  0  0  0  0  0  0  0
    8.6785   -1.1849   -2.7994 C   0  0  0  0  0  0  0  0  0  0  0  0
    8.0478   -0.6643   -3.9251 C   0  0  0  0  0  0  0  0  0  0  0  0
    7.2045    0.4415   -3.7908 C   0  0  0  0  0  0  0  0  0  0  0  0
    6.5737    0.9438   -4.8979 O   0  0  0  0  0  0  0  0  0  0  0  0
    6.8302    4.2033   -1.0217 C   0  0  0  0  0  0  0  0  0  0  0  0
    6.3386    5.3852   -1.8465 C   0  0  0  0  0  0  0  0  0  0  0  0
    5.0917    5.9762   -1.5711 C   0  0  0  0  0  0  0  0  0  0  0  0
    4.6958    7.1325   -2.2466 C   0  0  0  0  0  0  0  0  0  0  0  0
    3.5183    7.7576   -1.9591 O   0  0  0  0  0  0  0  0  0  0  0  0
    5.5023    7.7061   -3.2213 C   0  0  0  0  0  0  0  0  0  0  0  0
    6.7279    7.1212   -3.5262 C   0  0  0  0  0  0  0  0  0  0  0  0
    7.1373    5.9736   -2.8400 C   0  0  0  0  0  0  0  0  0  0  0  0
    8.3513    5.4184   -3.1352 O   0  0  0  0  0  0  0  0  0  0  0  0
    3.7221    2.3255   -0.6785 C   0  0  0  0  0  0  0  0  0  0  0  0
    2.7187    2.0123    0.2452 C   0  0  0  0  0  0  0  0  0  0  0  0
    3.0000    2.0217    1.6074 C   0  0  0  0  0  0  0  0  0  0  0  0
    2.0126    1.6911    2.5000 O   0  0  0  0  0  0  0  0  0  0  0  0
    2.8558    1.8164    3.9216 H   0  0  0  0  0  0  0  0  0  0  0  0
    6.2631    2.9477    1.4667 H   0  0  0  0  0  0  0  0  0  0  0  0
    6.5737    3.0183   -3.2226 H   0  0  0  0  0  0  0  0  0  0  0  0
    5.1339    2.0792   -2.9191 H   0  0  0  0  0  0  0  0  0  0  0  0
    7.4477    0.9287   -0.4363 H   0  0  0  0  0  0  0  0  0  0  0  0
    8.9317   -1.0260   -0.6677 H   0  0  0  0  0  0  0  0  0  0  0  0
    9.3512   -2.0337   -2.8943 H   0  0  0  0  0  0  0  0  0  0  0  0
    8.2286   -1.1229   -4.8927 H   0  0  0  0  0  0  0  0  0  0  0  0
    6.7897    0.3802   -5.6595 H   0  0  0  0  0  0  0  0  0  0  0  0
    7.8691    3.9598   -1.2720 H   0  0  0  0  0  0  0  0  0  0  0  0
    6.8650    4.5368    0.0222 H   0  0  0  0  0  0  0  0  0  0  0  0
    4.4465    5.5331   -0.8190 H   0  0  0  0  0  0  0  0  0  0  0  0
    3.1688    7.3811   -1.1347 H   0  0  0  0  0  0  0  0  0  0  0  0
    5.1831    8.6139   -3.7263 H   0  0  0  0  0  0  0  0  0  0  0  0
    7.3558    7.5848   -4.2808 H   0  0  0  0  0  0  0  0  0  0  0  0
    8.7363    5.8896   -3.8929 H   0  0  0  0  0  0  0  0  0  0  0  0
    3.4502    2.3180   -1.7303 H   0  0  0  0  0  0  0  0  0  0  0  0
    1.7278    1.7679   -0.1268 H   0  0  0  0  0  0  0  0  0  0  0  0
    1.2139    1.4372    1.9987 H   0  0  0  0  0  0  0  0  0  0  0  0
  1  2  2  0  0  0  0
  2  3  1  0  0  0  0
  2  4  1  0  0  0  0
  3 29  1  0  0  0  0
  4  5  1  0  0  0  0
  4 27  2  0  0  0  0
  5  6  2  0  0  0  0
  5 30  1  0  0  0  0
  6  7  1  0  0  0  0
  6 25  1  0  0  0  0
  7  8  1  0  0  0  0
  7 16  1  0  0  0  0
  8  9  1  0  0  0  0
  8 31  1  0  0  0  0
  8 32  1  0  0  0  0
  9 10  1  0  0  0  0
  9 14  2  0  0  0  0
 10 11  2  0  0  0  0
 10 33  1  0  0  0  0
 11 12  1  0  0  0  0
 11 34  1  0  0  0  0
 12 13  2  0  0  0  0
 12 35  1  0  0  0  0
 13 14  1  0  0  0  0
 13 36  1  0  0  0  0
 14 15  1  0  0  0  0
 15 37  1  0  0  0  0
 16 17  1  0  0  0  0
 16 38  1  0  0  0  0
 16 39  1  0  0  0  0
 17 18  1  0  0  0  0
 17 23  2  0  0  0  0
 18 19  2  0  0  0  0
 18 40  1  0  0  0  0
 19 20  1  0  0  0  0
 19 21  1  0  0  0  0
 20 41  1  0  0  0  0
 21 22  2  0  0  0  0
 21 42  1  0  0  0  0
 22 23  1  0  0  0  0
 22 43  1  0  0  0  0
 23 24  1  0  0  0  0
 24 44  1  0  0  0  0
 25 26  2  0  0  0  0
 25 45  1  0  0  0  0
 26 27  1  0  0  0  0
 26 46  1  0  0  0  0
 27 28  1  0  0  0  0
 28 47  1  0  0  0  0
M  END
$$$$
