
 OpenBabel05112615523D

 18 18  0  0  0  0  0  0  0  0999 V2000
   -2.7996    0.0289   -0.1752 N   0  0  0  0  0  0  0  0  0  0  0  0
   -1.4139    0.0224    0.0096 C   0  0  0  0  0  0  0  0  0  0  0  0
   -0.7074   -1.1813   -0.0273 C   0  0  0  0  0  0  0  0  0  0  0  0
    0.6892   -1.1948    0.0114 C   0  0  0  0  0  0  0  0  0  0  0  0
    1.3912    0.0096    0.0469 C   0  0  0  0  0  0  0  0  0  0  0  0
    2.7628   -0.0157    0.0705 O   0  0  0  0  0  0  0  0  0  0  0  0
    0.7079    1.2321    0.0380 C   0  0  0  0  0  0  0  0  0  0  0  0
    1.3765    2.5668    0.0599 C   0  0  0  0  0  0  0  0  0  0  0  0
    0.7501    3.6157    0.0593 O   0  0  0  0  0  0  0  0  0  0  0  0
    2.7253    2.5365    0.0874 O   0  0  0  0  0  0  0  0  0  0  0  0
   -0.6966    1.2217   -0.0056 C   0  0  0  0  0  0  0  0  0  0  0  0
   -3.2736   -0.8062    0.1539 H   0  0  0  0  0  0  0  0  0  0  0  0
   -3.2581    0.8799    0.1388 H   0  0  0  0  0  0  0  0  0  0  0  0
   -1.2443   -2.1250   -0.0911 H   0  0  0  0  0  0  0  0  0  0  0  0
    1.2022   -2.1520   -0.0021 H   0  0  0  0  0  0  0  0  0  0  0  0
    3.0565   -0.9458    0.0231 H   0  0  0  0  0  0  0  0  0  0  0  0
    3.0768    1.6184    0.0875 H   0  0  0  0  0  0  0  0  0  0  0  0
   -1.2355    2.1670   -0.0508 H   0  0  0  0  0  0  0  0  0  0  0  0
  1  2  1  0  0  0  0
  1 12  1  0  0  0  0
  1 13  1  0  0  0  0
  2  3  1  0  0  0  0
  2 11  2  0  0  0  0
  3  4  2  0  0  0  0
  3 14  1  0  0  0  0
  4  5  1  0  0  0  0
  4 15  1  0  0  0  0
  5  6  1  0  0  0  0
  5  7  2  0  0  0  0
  6 16  1  0  0  0  0
  7  8  1  0  0  0  0
  7 11  1  0  0  0  0
  8  9  2  0  0  0  0
  8 10  1  0  0  0  0
 10 17  1  0  0  0  0
 11 18  1  0  0  0  0
M  END
$$$$
