
 OpenBabel05112615523D

 70 73  0  0  0  0  0  0  0  0999 V2000
    4.1241   -2.1989   -0.3173 C   0  0  0  0  0  0  0  0  0  0  0  0
    3.8441   -0.8940   -0.1768 C   0  0  0  0  0  0  0  0  0  0  0  0
    4.9292    0.0799    0.1416 C   0  0  0  0  0  0  0  0  0  0  0  0
    6.0920   -0.2800    0.2620 O   0  0  0  0  0  0  0  0  0  0  0  0
    4.4131    1.3472    0.3454 N   0  0  0  0  0  0  0  0  0  0  0  0
    5.2178    2.4140    0.8062 C   0  0  0  0  0  0  0  0  0  0  0  0
    4.7762    2.9947    2.0008 C   0  0  0  0  0  0  0  0  0  0  0  0
    5.5437    3.9356    2.7019 C   0  0  0  0  0  0  0  0  0  0  0  0
    5.1067    4.3544    3.9670 N   0  0  0  0  0  0  0  0  0  0  0  0
    4.4344    3.5779    4.9127 C   0  0  0  0  0  0  0  0  0  0  0  0
    3.7304    4.2885    5.8167 N   0  0  0  0  0  0  0  0  0  0  0  0
    3.0738    3.5970    6.7532 C   0  0  0  0  0  0  0  0  0  0  0  0
    3.0819    2.2341    6.8042 C   0  0  0  0  0  0  0  0  0  0  0  0
    3.7776    1.5842    5.7952 C   0  0  0  0  0  0  0  0  0  0  0  0
    3.6076    0.1298    5.7073 C   0  0  0  0  0  0  0  0  0  0  0  0
    2.3062   -0.3487    5.7905 C   0  0  0  0  0  0  0  0  0  0  0  0
    2.3154   -1.2833    6.7905 N   0  0  0  0  0  0  0  0  0  0  0  0
    1.1558   -1.5950    7.5849 C   0  0  0  0  0  0  0  0  0  0  0  0
    3.6040   -1.6691    7.0735 C   0  0  0  0  0  0  0  0  0  0  0  0
    4.1077   -2.5730    8.0200 C   0  0  0  0  0  0  0  0  0  0  0  0
    5.4861   -2.7954    8.0440 C   0  0  0  0  0  0  0  0  0  0  0  0
    6.3300   -2.1401    7.1517 C   0  0  0  0  0  0  0  0  0  0  0  0
    5.8295   -1.1594    6.2839 C   0  0  0  0  0  0  0  0  0  0  0  0
    4.4441   -0.8957    6.2588 C   0  0  0  0  0  0  0  0  0  0  0  0
    4.4781    2.2354    4.8658 N   0  0  0  0  0  0  0  0  0  0  0  0
    6.6845    4.4453    2.0801 C   0  0  0  0  0  0  0  0  0  0  0  0
    7.5370    5.4292    2.5080 O   0  0  0  0  0  0  0  0  0  0  0  0
    7.2714    6.1235    3.7176 C   0  0  0  0  0  0  0  0  0  0  0  0
    7.0946    3.8940    0.8505 C   0  0  0  0  0  0  0  0  0  0  0  0
    6.4022    2.8590    0.1886 C   0  0  0  0  0  0  0  0  0  0  0  0
    6.8571    2.3970   -1.0414 N   0  0  0  0  0  0  0  0  0  0  0  0
    8.2841    2.3200   -1.3140 C   0  0  0  0  0  0  0  0  0  0  0  0
    5.9539    2.3248   -2.1981 C   0  0  0  0  0  0  0  0  0  0  0  0
    5.4166    3.7131   -2.6185 C   0  0  0  0  0  0  0  0  0  0  0  0
    4.5322    3.6910   -3.8089 N   0  0  0  0  0  0  0  0  0  0  0  0
    3.3196    2.9062   -3.5688 C   0  0  0  0  0  0  0  0  0  0  0  0
    4.1667    5.0609   -4.1776 C   0  0  0  0  0  0  0  0  0  0  0  0
    3.3504   -2.9142   -0.5615 H   0  0  0  0  0  0  0  0  0  0  0  0
    5.1403   -2.5685   -0.2121 H   0  0  0  0  0  0  0  0  0  0  0  0
    2.8308   -0.5347   -0.2919 H   0  0  0  0  0  0  0  0  0  0  0  0
    3.4460    1.3671    0.6406 H   0  0  0  0  0  0  0  0  0  0  0  0
    3.8582    2.6249    2.4495 H   0  0  0  0  0  0  0  0  0  0  0  0
    4.6766    5.2692    3.9820 H   0  0  0  0  0  0  0  0  0  0  0  0
    2.4967    4.1797    7.4627 H   0  0  0  0  0  0  0  0  0  0  0  0
    2.5266    1.6951    7.5591 H   0  0  0  0  0  0  0  0  0  0  0  0
    1.3773    0.1171    5.4899 H   0  0  0  0  0  0  0  0  0  0  0  0
    0.2749   -1.1039    7.1611 H   0  0  0  0  0  0  0  0  0  0  0  0
    1.3246   -1.2085    8.5965 H   0  0  0  0  0  0  0  0  0  0  0  0
    1.0157   -2.6757    7.5935 H   0  0  0  0  0  0  0  0  0  0  0  0
    3.4541   -3.0810    8.7223 H   0  0  0  0  0  0  0  0  0  0  0  0
    5.9018   -3.4931    8.7673 H   0  0  0  0  0  0  0  0  0  0  0  0
    7.3932   -2.3680    7.1500 H   0  0  0  0  0  0  0  0  0  0  0  0
    6.5016   -0.6275    5.6147 H   0  0  0  0  0  0  0  0  0  0  0  0
    8.0133    6.9242    3.8083 H   0  0  0  0  0  0  0  0  0  0  0  0
    7.3907    5.4705    4.5873 H   0  0  0  0  0  0  0  0  0  0  0  0
    6.2933    6.6122    3.6960 H   0  0  0  0  0  0  0  0  0  0  0  0
    7.9947    4.3035    0.4022 H   0  0  0  0  0  0  0  0  0  0  0  0
    8.8936    2.3161   -0.4032 H   0  0  0  0  0  0  0  0  0  0  0  0
    8.6021    3.1544   -1.9478 H   0  0  0  0  0  0  0  0  0  0  0  0
    8.5065    1.3846   -1.8387 H   0  0  0  0  0  0  0  0  0  0  0  0
    5.1318    1.6399   -1.9946 H   0  0  0  0  0  0  0  0  0  0  0  0
    6.4884    1.8851   -3.0498 H   0  0  0  0  0  0  0  0  0  0  0  0
    6.2866    4.3455   -2.8424 H   0  0  0  0  0  0  0  0  0  0  0  0
    4.8964    4.1878   -1.7761 H   0  0  0  0  0  0  0  0  0  0  0  0
    3.5532    1.8459   -3.4325 H   0  0  0  0  0  0  0  0  0  0  0  0
    2.6531    2.9510   -4.4377 H   0  0  0  0  0  0  0  0  0  0  0  0
    2.7651    3.2581   -2.6914 H   0  0  0  0  0  0  0  0  0  0  0  0
    5.0596    5.6511   -4.4112 H   0  0  0  0  0  0  0  0  0  0  0  0
    3.6130    5.5705   -3.3802 H   0  0  0  0  0  0  0  0  0  0  0  0
    3.5465    5.0624   -5.0810 H   0  0  0  0  0  0  0  0  0  0  0  0
  1  2  2  0  0  0  0
  1 38  1  0  0  0  0
  1 39  1  0  0  0  0
  2  3  1  0  0  0  0
  2 40  1  0  0  0  0
  3  4  2  0  0  0  0
  3  5  1  0  0  0  0
  5  6  1  0  0  0  0
  5 41  1  0  0  0  0
  6  7  1  0  0  0  0
  6 30  2  0  0  0  0
  7  8  2  0  0  0  0
  7 42  1  0  0  0  0
  8  9  1  0  0  0  0
  8 26  1  0  0  0  0
  9 10  1  0  0  0  0
  9 43  1  0  0  0  0
 10 11  1  0  0  0  0
 10 25  2  0  0  0  0
 11 12  2  0  0  0  0
 12 13  1  0  0  0  0
 12 44  1  0  0  0  0
 13 14  2  0  0  0  0
 13 45  1  0  0  0  0
 14 15  1  0  0  0  0
 14 25  1  0  0  0  0
 15 16  2  0  0  0  0
 15 24  1  0  0  0  0
 16 17  1  0  0  0  0
 16 46  1  0  0  0  0
 17 18  1  0  0  0  0
 17 19  1  0  0  0  0
 18 47  1  0  0  0  0
 18 48  1  0  0  0  0
 18 49  1  0  0  0  0
 19 20  1  0  0  0  0
 19 24  2  0  0  0  0
 20 21  2  0  0  0  0
 20 50  1  0  0  0  0
 21 22  1  0  0  0  0
 21 51  1  0  0  0  0
 22 23  2  0  0  0  0
 22 52  1  0  0  0  0
 23 24  1  0  0  0  0
 23 53  1  0  0  0  0
 26 27  1  0  0  0  0
 26 29  2  0  0  0  0
 27 28  1  0  0  0  0
 28 54  1  0  0  0  0
 28 55  1  0  0  0  0
 28 56  1  0  0  0  0
 29 30  1  0  0  0  0
 29 57  1  0  0  0  0
 30 31  1  0  0  0  0
 31 32  1  0  0  0  0
 31 33  1  0  0  0  0
 32 58  1  0  0  0  0
 32 59  1  0  0  0  0
 32 60  1  0  0  0  0
 33 34  1  0  0  0  0
 33 61  1  0  0  0  0
 33 62  1  0  0  0  0
 34 35  1  0  0  0  0
 34 63  1  0  0  0  0
 34 64  1  0  0  0  0
 35 36  1  0  0  0  0
 35 37  1  0  0  0  0
 36 65  1  0  0  0  0
 36 66  1  0  0  0  0
 36 67  1  0  0  0  0
 37 68  1  0  0  0  0
 37 69  1  0  0  0  0
 37 70  1  0  0  0  0
M  END
$$$$
