
 OpenBabel05112615533D

 48 50  0  0  0  0  0  0  0  0999 V2000
    5.7729    6.0491    2.9206 C   0  0  0  0  0  0  0  0  0  0  0  0
    6.5270    4.9723    2.3411 N   0  0  0  0  0  0  0  0  0  0  0  0
    6.1511    3.6565    2.5013 C   0  0  0  0  0  0  0  0  0  0  0  0
    5.1716    3.3023    3.1485 O   0  0  0  0  0  0  0  0  0  0  0  0
    7.0480    2.6600    1.8320 C   0  0  0  0  0  0  0  0  0  0  0  0
    6.7360    1.3124    1.9109 C   0  0  0  0  0  0  0  0  0  0  0  0
    7.6475    0.4052    1.3808 C   0  0  0  0  0  0  0  0  0  0  0  0
    7.4998   -0.9618    1.4483 O   0  0  0  0  0  0  0  0  0  0  0  0
    6.9359   -1.5204    2.5716 C   0  0  0  0  0  0  0  0  0  0  0  0
    6.1767   -2.6664    2.3727 C   0  0  0  0  0  0  0  0  0  0  0  0
    5.5308   -3.2773    3.4519 C   0  0  0  0  0  0  0  0  0  0  0  0
    5.6372   -2.7553    4.7465 C   0  0  0  0  0  0  0  0  0  0  0  0
    4.9412   -3.2779    5.8630 N   0  0  0  0  0  0  0  0  0  0  0  0
    4.1907   -4.4385    5.8788 C   0  0  0  0  0  0  0  0  0  0  0  0
    4.1457   -5.2515    4.9604 O   0  0  0  0  0  0  0  0  0  0  0  0
    3.4596   -4.5780    7.0427 N   0  0  0  0  0  0  0  0  0  0  0  0
    2.6032   -5.6923    7.2263 C   0  0  0  0  0  0  0  0  0  0  0  0
    1.3207   -5.4800    7.7214 C   0  0  0  0  0  0  0  0  0  0  0  0
    0.4351   -6.5544    7.8272 C   0  0  0  0  0  0  0  0  0  0  0  0
    0.8303   -7.8542    7.4801 C   0  0  0  0  0  0  0  0  0  0  0  0
   -0.3553   -9.0915    7.6807 Cl  0  0  0  0  0  0  0  0  0  0  0  0
    2.1214   -8.0950    7.0046 C   0  0  0  0  0  0  0  0  0  0  0  0
    2.6473   -9.4449    6.5861 C   0  0  0  0  0  0  0  0  0  0  0  0
    1.7889  -10.4912    6.7018 F   0  0  0  0  0  0  0  0  0  0  0  0
    3.0521   -9.4555    5.2834 F   0  0  0  0  0  0  0  0  0  0  0  0
    3.7484   -9.8041    7.3097 F   0  0  0  0  0  0  0  0  0  0  0  0
    2.9991   -6.9939    6.8873 C   0  0  0  0  0  0  0  0  0  0  0  0
    6.4483   -1.6342    4.9468 C   0  0  0  0  0  0  0  0  0  0  0  0
    7.1173   -1.0366    3.8701 C   0  0  0  0  0  0  0  0  0  0  0  0
    8.7701    0.8715    0.7044 C   0  0  0  0  0  0  0  0  0  0  0  0
    8.9810    2.2385    0.6483 C   0  0  0  0  0  0  0  0  0  0  0  0
    8.1578    3.1516    1.2103 N   0  0  0  0  0  0  0  0  0  0  0  0
    6.2335    6.9980    2.6388 H   0  0  0  0  0  0  0  0  0  0  0  0
    5.7684    5.9418    4.0090 H   0  0  0  0  0  0  0  0  0  0  0  0
    4.7441    6.0065    2.5523 H   0  0  0  0  0  0  0  0  0  0  0  0
    7.3684    5.1484    1.7982 H   0  0  0  0  0  0  0  0  0  0  0  0
    5.8231    0.9911    2.4006 H   0  0  0  0  0  0  0  0  0  0  0  0
    6.0637   -3.0872    1.3769 H   0  0  0  0  0  0  0  0  0  0  0  0
    4.9328   -4.1554    3.2316 H   0  0  0  0  0  0  0  0  0  0  0  0
    5.0861   -2.8240    6.7484 H   0  0  0  0  0  0  0  0  0  0  0  0
    3.1577   -3.7082    7.4565 H   0  0  0  0  0  0  0  0  0  0  0  0
    0.9715   -4.4803    7.9646 H   0  0  0  0  0  0  0  0  0  0  0  0
   -0.5821   -6.3667    8.1667 H   0  0  0  0  0  0  0  0  0  0  0  0
    4.0101   -7.1674    6.5140 H   0  0  0  0  0  0  0  0  0  0  0  0
    6.5714   -1.1999    5.9358 H   0  0  0  0  0  0  0  0  0  0  0  0
    7.7559   -0.1792    4.0608 H   0  0  0  0  0  0  0  0  0  0  0  0
    9.4684    0.1818    0.2433 H   0  0  0  0  0  0  0  0  0  0  0  0
    9.8526    2.6452    0.1419 H   0  0  0  0  0  0  0  0  0  0  0  0
  1  2  1  0  0  0  0
  1 33  1  0  0  0  0
  1 34  1  0  0  0  0
  1 35  1  0  0  0  0
  2  3  1  0  0  0  0
  2 36  1  0  0  0  0
  3  4  2  0  0  0  0
  3  5  1  0  0  0  0
  5  6  1  0  0  0  0
  5 32  2  0  0  0  0
  6  7  2  0  0  0  0
  6 37  1  0  0  0  0
  7  8  1  0  0  0  0
  7 30  1  0  0  0  0
  8  9  1  0  0  0  0
  9 10  1  0  0  0  0
  9 29  2  0  0  0  0
 10 11  2  0  0  0  0
 10 38  1  0  0  0  0
 11 12  1  0  0  0  0
 11 39  1  0  0  0  0
 12 13  1  0  0  0  0
 12 28  2  0  0  0  0
 13 14  1  0  0  0  0
 13 40  1  0  0  0  0
 14 15  2  0  0  0  0
 14 16  1  0  0  0  0
 16 17  1  0  0  0  0
 16 41  1  0  0  0  0
 17 18  1  0  0  0  0
 17 27  2  0  0  0  0
 18 19  2  0  0  0  0
 18 42  1  0  0  0  0
 19 20  1  0  0  0  0
 19 43  1  0  0  0  0
 20 21  1  0  0  0  0
 20 22  2  0  0  0  0
 22 23  1  0  0  0  0
 22 27  1  0  0  0  0
 23 24  1  0  0  0  0
 23 25  1  0  0  0  0
 23 26  1  0  0  0  0
 27 44  1  0  0  0  0
 28 29  1  0  0  0  0
 28 45  1  0  0  0  0
 29 46  1  0  0  0  0
 30 31  2  0  0  0  0
 30 47  1  0  0  0  0
 31 32  1  0  0  0  0
 31 48  1  0  0  0  0
M  END
$$$$
