
 OpenBabel05112615523D

 36 38  0  0  0  0  0  0  0  0999 V2000
    3.5551    1.2152   -0.2989 C   0  0  0  0  0  0  0  0  0  0  0  0
    2.6024    0.1495   -0.2442 O   0  0  0  0  0  0  0  0  0  0  0  0
    3.0796   -1.0492    0.2072 C   0  0  0  0  0  0  0  0  0  0  0  0
    4.1387   -1.1200    1.1313 C   0  0  0  0  0  0  0  0  0  0  0  0
    4.7240   -2.3161    1.5093 C   0  0  0  0  0  0  0  0  0  0  0  0
    5.7852   -2.2845    2.3251 N   0  0  0  0  0  0  0  0  0  0  0  0
    6.3424   -3.4606    2.6277 C   0  0  0  0  0  0  0  0  0  0  0  0
    5.9397   -4.6558    2.1954 N   0  0  0  0  0  0  0  0  0  0  0  0
    4.8728   -4.6752    1.3690 C   0  0  0  0  0  0  0  0  0  0  0  0
    4.4443   -5.9201    0.8307 N   0  0  0  0  0  0  0  0  0  0  0  0
    4.8912   -7.1782    1.2870 C   0  0  0  0  0  0  0  0  0  0  0  0
    4.9061   -7.4751    2.6570 C   0  0  0  0  0  0  0  0  0  0  0  0
    5.3982   -8.6937    3.1220 C   0  0  0  0  0  0  0  0  0  0  0  0
    5.8782   -9.6343    2.2154 C   0  0  0  0  0  0  0  0  0  0  0  0
    5.8437   -9.3568    0.8500 C   0  0  0  0  0  0  0  0  0  0  0  0
    6.4469  -10.5190   -0.2682 Cl  0  0  0  0  0  0  0  0  0  0  0  0
    5.3419   -8.1427    0.3806 C   0  0  0  0  0  0  0  0  0  0  0  0
    4.2006   -3.5028    1.0020 C   0  0  0  0  0  0  0  0  0  0  0  0
    3.0637   -3.4564    0.1680 C   0  0  0  0  0  0  0  0  0  0  0  0
    2.5043   -2.2438   -0.2477 C   0  0  0  0  0  0  0  0  0  0  0  0
    1.4518   -2.4521   -1.0925 O   0  0  0  0  0  0  0  0  0  0  0  0
    0.8229   -1.3567   -1.7314 C   0  0  0  0  0  0  0  0  0  0  0  0
    3.3178    1.8391   -1.1654 H   0  0  0  0  0  0  0  0  0  0  0  0
    4.5889    0.8731   -0.4301 H   0  0  0  0  0  0  0  0  0  0  0  0
    3.4699    1.8288    0.6034 H   0  0  0  0  0  0  0  0  0  0  0  0
    4.5522   -0.2120    1.5639 H   0  0  0  0  0  0  0  0  0  0  0  0
    7.2111   -3.4434    3.2775 H   0  0  0  0  0  0  0  0  0  0  0  0
    4.4334   -5.8543   -0.1825 H   0  0  0  0  0  0  0  0  0  0  0  0
    4.5451   -6.7402    3.3735 H   0  0  0  0  0  0  0  0  0  0  0  0
    5.4173   -8.8949    4.1892 H   0  0  0  0  0  0  0  0  0  0  0  0
    6.2809  -10.5747    2.5790 H   0  0  0  0  0  0  0  0  0  0  0  0
    5.3375   -7.9421   -0.6870 H   0  0  0  0  0  0  0  0  0  0  0  0
    2.6010   -4.3796   -0.1770 H   0  0  0  0  0  0  0  0  0  0  0  0
    0.1935   -1.7731   -2.5255 H   0  0  0  0  0  0  0  0  0  0  0  0
    1.5393   -0.6903   -2.2180 H   0  0  0  0  0  0  0  0  0  0  0  0
    0.1692   -0.8254   -1.0344 H   0  0  0  0  0  0  0  0  0  0  0  0
  1  2  1  0  0  0  0
  1 23  1  0  0  0  0
  1 24  1  0  0  0  0
  1 25  1  0  0  0  0
  2  3  1  0  0  0  0
  3  4  1  0  0  0  0
  3 20  2  0  0  0  0
  4  5  2  0  0  0  0
  4 26  1  0  0  0  0
  5  6  1  0  0  0  0
  5 18  1  0  0  0  0
  6  7  2  0  0  0  0
  7  8  1  0  0  0  0
  7 27  1  0  0  0  0
  8  9  2  0  0  0  0
  9 10  1  0  0  0  0
  9 18  1  0  0  0  0
 10 11  1  0  0  0  0
 10 28  1  0  0  0  0
 11 12  1  0  0  0  0
 11 17  2  0  0  0  0
 12 13  2  0  0  0  0
 12 29  1  0  0  0  0
 13 14  1  0  0  0  0
 13 30  1  0  0  0  0
 14 15  2  0  0  0  0
 14 31  1  0  0  0  0
 15 16  1  0  0  0  0
 15 17  1  0  0  0  0
 17 32  1  0  0  0  0
 18 19  2  0  0  0  0
 19 20  1  0  0  0  0
 19 33  1  0  0  0  0
 20 21  1  0  0  0  0
 21 22  1  0  0  0  0
 22 34  1  0  0  0  0
 22 35  1  0  0  0  0
 22 36  1  0  0  0  0
M  END
$$$$
