# created with PyMOL 2.3.0
@<TRIPOS>MOLECULE
ligand
52 54 1                 
SMALL
USER_CHARGES
@<TRIPOS>ATOM
1	   N	26.043	0.530	52.752	N.pl3	1	LIG1	0.000	
2	   N	26.749	2.097	51.104	N.2	1	LIG1	0.000	
3	   N	25.201	3.190	49.666	N.2	1	LIG1	0.000	
4	   C	29.958	-3.234	55.212	C.3	1	LIG1	0.000	
5	   C	29.494	-2.161	54.921	C.3	1	LIG1	0.000	
6	   C	28.961	-0.881	54.575	C.2	1	LIG1	0.000	
7	   C	29.610	0.278	55.007	C.2	1	LIG1	0.000	
8	   C	29.092	1.529	54.678	C.2	1	LIG1	0.000	
9	   C	27.933	1.620	53.904	C.2	1	LIG1	0.000	
10	   C	27.289	0.466	53.434	C.2	1	LIG1	0.000	
11	   C	25.730	1.470	51.723	C.2	1	LIG1	0.000	
12	   C	26.435	2.927	50.109	C.2	1	LIG1	0.000	
13	   C	24.193	2.557	50.274	C.2	1	LIG1	0.000	
14	   C	22.892	2.823	49.857	C.2	1	LIG1	0.000	
15	   C	21.749	2.259	50.457	C.2	1	LIG1	0.000	
16	   C	19.434	2.802	50.733	C.3	1	LIG1	0.000	
17	   C	18.463	3.909	50.338	C.3	1	LIG1	0.000	
18	   C	16.270	4.648	50.879	C.3	1	LIG1	0.000	
19	   C	21.936	1.315	51.471	C.2	1	LIG1	0.000	
20	   C	19.944	-0.022	51.576	C.3	1	LIG1	0.000	
21	   C	19.941	-1.520	51.866	C.3	1	LIG1	0.000	
22	   C	19.665	-3.157	53.528	C.3	1	LIG1	0.000	
23	   C	23.246	1.029	51.895	C.2	1	LIG1	0.000	
24	   C	24.387	1.653	51.321	C.2	1	LIG1	0.000	
25	   C	27.793	-0.785	53.807	C.2	1	LIG1	0.000	
26	   O	20.598	2.781	49.924	O.3	1	LIG1	0.000	
27	   O	17.313	3.736	51.171	O.3	1	LIG1	0.000	
28	   O	21.007	0.666	52.234	O.3	1	LIG1	0.000	
29	   O	19.847	-1.770	53.268	O.3	1	LIG1	0.000	
30	   H	30.376	-4.177	55.471	 H	1	LIG1	0.000	
31	   H	30.515	0.213	55.606	 H	1	LIG1	0.000	
32	   H	29.586	2.433	55.022	 H	1	LIG1	0.000	
33	   H	27.535	2.603	53.668	 H	1	LIG1	0.000	
34	   H	25.329	0.604	53.474	 H	1	LIG1	0.000	
35	   H	27.257	3.436	49.618	 H	1	LIG1	0.000	
36	   H	22.758	3.544	49.050	 H	1	LIG1	0.000	
37	   H	19.666	2.891	51.800	 H	1	LIG1	0.000	
38	   H	18.877	1.884	50.549	 H	1	LIG1	0.000	
39	   H	18.187	3.812	49.281	 H	1	LIG1	0.000	
40	   H	18.908	4.896	50.492	 H	1	LIG1	0.000	
41	   H	15.445	4.442	51.567	 H	1	LIG1	0.000	
42	   H	15.911	4.508	49.856	 H	1	LIG1	0.000	
43	   H	16.606	5.676	51.033	 H	1	LIG1	0.000	
44	   H	19.970	0.109	50.490	 H	1	LIG1	0.000	
45	   H	19.017	0.390	51.989	 H	1	LIG1	0.000	
46	   H	20.855	-1.978	51.480	 H	1	LIG1	0.000	
47	   H	19.070	-1.961	51.365	 H	1	LIG1	0.000	
48	   H	19.744	-3.324	54.606	 H	1	LIG1	0.000	
49	   H	20.432	-3.752	53.023	 H	1	LIG1	0.000	
50	   H	18.670	-3.471	53.197	 H	1	LIG1	0.000	
51	   H	23.368	0.310	52.701	 H	1	LIG1	0.000	
52	   H	27.287	-1.688	53.480	 H	1	LIG1	0.000	
@<TRIPOS>BOND
1 1 10 1
2 1 11 1
3 1 34 1
4 2 11 ar
5 2 12 ar
6 3 12 ar
7 3 13 ar
8 4 5 1
9 4 30 1
10 5 6 1
11 6 7 ar
12 6 25 ar
13 7 8 ar
14 7 31 1
15 8 9 ar
16 8 32 1
17 9 10 ar
18 9 33 1
19 10 25 ar
20 11 24 ar
21 12 35 1
22 13 14 ar
23 13 24 ar
24 14 15 ar
25 14 36 1
26 15 19 ar
27 15 26 1
28 16 17 1
29 16 26 1
30 16 37 1
31 16 38 1
32 17 27 1
33 17 39 1
34 17 40 1
35 18 27 1
36 18 41 1
37 18 42 1
38 18 43 1
39 19 23 ar
40 19 28 1
41 20 21 1
42 20 28 1
43 20 44 1
44 20 45 1
45 21 29 1
46 21 46 1
47 21 47 1
48 22 29 1
49 22 48 1
50 22 49 1
51 22 50 1
52 23 24 ar
53 23 51 1
54 25 52 1
@<TRIPOS>SUBSTRUCTURE
1	LIG1	1	GROUP	1 ****	LIG
